api/pglib_opf_case3022_goc__api.m
%%%%%%%%%%%%%%%%%%%%%%%%%%%%%%%%%%%%%%%%%%%%%%%%%%%%%%%%%%%%%%%%%%%%%%%%%%%
%%%%                                                                  %%%%%
%%%%    IEEE PES Power Grid Library - Optimal Power Flow - v20.04     %%%%%
%%%%          (https://github.com/power-grid-lib/pglib-opf)           %%%%%
%%%%             Benchmark Group - Active Power Increase              %%%%%
%%%%                         12 - July - 2020                         %%%%%
%%%%                                                                  %%%%%
%%%%%%%%%%%%%%%%%%%%%%%%%%%%%%%%%%%%%%%%%%%%%%%%%%%%%%%%%%%%%%%%%%%%%%%%%%%
function mpc = pglib_opf_case3022_goc__api
mpc.version = '2';
mpc.baseMVA = 100.0;

%% bus data
%	bus_i	type	Pd	Qd	Gs	Bs	area	Vm	Va	baseKV	zone	Vmax	Vmin
mpc.bus = [
	1	 1	 0.0	 0.0	 0.0	 10.7088450599	 1	    1.00000	    0.00000	 230.0	 1	    1.05000	    0.95000;
	2	 1	 0.0	 0.0	 0.0	 0.0	 1	    1.00772	    0.00000	 1.0	 1	    1.06544	    0.95000;
	3	 1	 0.0	 0.0	 0.0	 -18.6298909061	 1	    1.00000	    0.00000	 115.0	 1	    1.05000	    0.95000;
	4	 1	 -87.67	 20.93	 0.0	 8.95926743971	 1	    1.00000	    0.00000	 115.0	 1	    1.05000	    0.95000;
	5	 1	 112.96	 -26.82	 0.0	 10.4858880796	 1	    1.00000	    0.00000	 115.0	 1	    1.05000	    0.95000;
	6	 1	 0.0	 0.0	 0.0	 0.0	 1	    1.00000	    0.00000	 230.0	 1	    1.05000	    0.95000;
	7	 1	 -146.87	 -0.76	 0.0	 -15.929963951	 1	    1.00000	    0.00000	 115.0	 1	    1.05000	    0.95000;
	8	 1	 0.0	 0.0	 0.0	 27.5488096085	 1	    1.00000	    0.00000	 115.0	 1	    1.05000	    0.95000;
	9	 2	 100.77	 -42.51	 0.0	 0.0	 1	    1.00000	    0.00000	 115.0	 1	    1.05000	    0.95000;
	10	 1	 0.0	 0.0	 0.0	 -0.00247428697143	 1	    1.00000	    0.00000	 115.0	 1	    1.05000	    0.95000;
	11	 1	 53.15	 5.53	 0.0	 0.0	 1	    1.00000	    0.00000	 115.0	 1	    1.05000	    0.95000;
	12	 1	 28.77	 2.79	 0.0	 2.65714737811	 1	    1.00000	    0.00000	 230.0	 1	    1.05000	    0.95000;
	13	 1	 0.0	 0.0	 0.0	 -27.9687572032	 1	    1.00000	    0.00000	 230.0	 1	    1.05000	    0.95000;
	14	 1	 259.48	 -10.86	 0.0	 2.47605317836e-05	 1	    1.00772	    0.00000	 345.0	 1	    1.06544	    0.95000;
	15	 1	 -87.69	 20.93	 0.0	 8.99926608727	 1	    1.00000	    0.00000	 115.0	 1	    1.05000	    0.95000;
	16	 1	 123.77	 -1.15	 0.0	 -17.445	 1	    1.00000	    0.00000	 230.0	 1	    1.05000	    0.95000;
	17	 1	 33.53	 7.24	 0.0	 1.56971077193	 1	    1.00000	    0.00000	 230.0	 1	    1.05000	    0.95000;
	18	 1	 47.87	 2.86	 0.0	 21.1150845864	 1	    1.00000	    0.00000	 230.0	 1	    1.05000	    0.95000;
	19	 1	 0.0	 0.0	 0.0	 0.0	 1	    1.01429	    0.00000	 500.0	 1	    1.07859	    0.95000;
	20	 1	 0.0	 0.0	 0.0	 0.0	 1	    1.00772	    0.00000	 1.0	 1	    1.06544	    0.95000;
	21	 1	 -88.38	 27.37	 0.0	 0.0	 1	    1.00000	    0.00000	 22.8	 1	    1.05000	    0.95000;
	22	 1	 0.0	 0.0	 0.0	 47.4985061457	 1	    1.00000	    0.00000	 230.0	 1	    1.05000	    0.95000;
	23	 2	 0.0	 0.0	 0.0	 10.787	 1	    1.00000	    0.00000	 345.0	 1	    1.05000	    0.95000;
	24	 1	 0.0	 0.0	 0.0	 -9.73913034417	 1	    1.00000	    0.00000	 138.0	 1	    1.05000	    0.95000;
	25	 2	 -99.44	 21.92	 0.0	 0.0	 1	    1.00000	    0.00000	 21.0	 1	    1.05000	    0.95000;
	26	 1	 100.53	 -20.51	 0.0	 -1.07635204534	 1	    1.00000	    0.00000	 230.0	 1	    1.05000	    0.95000;
	27	 2	 139.94	 -38.64	 0.0	 0.0	 1	    1.00000	    0.00000	 115.0	 1	    1.05000	    0.95000;
	28	 1	 -200.47	 -6.63	 0.0	 -14.7599583523	 1	    1.00826	    0.00000	 115.0	 1	    1.06652	    0.95000;
	29	 1	 0.0	 0.0	 0.0	 3.32755327965	 1	    1.00000	    0.00000	 115.0	 1	    1.05000	    0.95000;
	30	 1	 102.30	 24.64	 0.0	 44.5470035005	 1	    1.00000	    0.00000	 161.0	 1	    1.05000	    0.95000;
	31	 1	 0.0	 0.0	 0.0	 36.8036356464	 1	    1.00000	    0.00000	 230.0	 1	    1.05000	    0.95000;
	32	 1	 82.40	 -19.26	 0.0	 -0.895305326082	 1	    1.00000	    0.00000	 161.0	 1	    1.05000	    0.95000;
	33	 1	 -45.45	 26.26	 0.0	 6.056789459e-05	 1	    1.00000	    0.00000	 115.0	 1	    1.05000	    0.95000;
	34	 1	 121.82	 77.40	 0.0	 118.618169754	 1	    1.00000	    0.00000	 115.0	 1	    1.05000	    0.95000;
	35	 1	 35.88	 5.11	 0.0	 0.0	 1	    1.00000	    0.00000	 230.0	 1	    1.05000	    0.95000;
	36	 1	 0.0	 0.0	 0.0	 -0.349609780844	 1	    1.00000	    0.00000	 138.0	 1	    1.05000	    0.95000;
	37	 1	 0.0	 0.0	 0.0	 -2.33996268212	 1	    1.00000	    0.00000	 230.0	 1	    1.05000	    0.95000;
	38	 1	 0.0	 0.0	 0.0	 -9.08994151997	 1	    1.00000	    0.00000	 230.0	 1	    1.05000	    0.95000;
	39	 1	 0.0	 0.0	 0.0	 4.25160694973e-05	 1	    1.00972	    0.00000	 230.0	 1	    1.06945	    0.95000;
	40	 1	 0.0	 0.0	 0.0	 0.0	 1	    1.00000	    0.00000	 230.0	 1	    1.05000	    0.95000;
	41	 1	 0.0	 0.0	 0.0	 -5.94944609868	 1	    1.00000	    0.00000	 161.0	 1	    1.05000	    0.95000;
	42	 2	 42.44	 5.62	 0.0	 0.0	 1	    1.00000	    0.00000	 230.0	 1	    1.05000	    0.95000;
	43	 1	 0.0	 0.0	 0.0	 -37.4103850833	 1	    1.00000	    0.00000	 230.0	 1	    1.05000	    0.95000;
	44	 1	 -146.86	 -1.28	 0.0	 -16.4699639484	 1	    1.00000	    0.00000	 115.0	 1	    1.05000	    0.95000;
	45	 1	 0.0	 0.0	 0.0	 0.975274527807	 1	    1.00000	    0.00000	 230.0	 1	    1.05000	    0.95000;
	46	 2	 0.0	 0.0	 0.0	 0.0	 1	    1.00000	    0.00000	 1.0	 1	    1.05000	    0.95000;
	47	 1	 141.54	 -33.31	 0.0	 1.52802945537	 1	    1.00000	    0.00000	 115.0	 1	    1.05000	    0.95000;
	48	 1	 0.0	 0.0	 0.0	 10.2595185715	 1	    1.00000	    0.00000	 230.0	 1	    1.05000	    0.95000;
	49	 1	 39.22	 3.94	 0.0	 0.00109973857814	 1	    1.00000	    0.00000	 115.0	 1	    1.05000	    0.95000;
	50	 1	 22.20	 -5.04	 0.0	 29.0439740368	 1	    1.00000	    0.00000	 230.0	 1	    1.05000	    0.95000;
	51	 2	 0.0	 0.0	 0.0	 0.0	 1	    1.00000	    0.00000	 1.0	 1	    1.05000	    0.95000;
	52	 1	 27.12	 2.53	 0.0	 1.14866320306	 1	    1.00000	    0.00000	 230.0	 1	    1.05000	    0.95000;
	53	 1	 0.0	 0.0	 0.0	 -172.229974873	 1	    1.00772	    0.00000	 500.0	 1	    1.06544	    0.95000;
	54	 1	 238.87	 11.92	 0.0	 0.0	 1	    1.00000	    0.00000	 230.0	 1	    1.05000	    0.95000;
	55	 1	 0.0	 0.0	 0.0	 0.0	 1	    1.00000	    0.00000	 25.0	 2	    1.05000	    0.95000;
	56	 1	 0.0	 0.0	 0.0	 0.0	 1	    1.00000	    0.00000	 115.0	 2	    1.05000	    0.95000;
	57	 1	 0.0	 0.0	 0.0	 0.0	 1	    1.00000	    0.00000	 12.0	 2	    1.05000	    0.95000;
	58	 1	 0.0	 0.0	 0.0	 0.0	 1	    1.00000	    0.00000	 115.0	 2	    1.05000	    0.95000;
	59	 1	 10.55	 -8.99	 0.0	 -6.70459040187	 1	    1.00000	    0.00000	 115.0	 2	    1.05000	    0.95000;
	60	 2	 0.0	 0.0	 0.0	 0.0	 1	    1.00000	    0.00000	 25.0	 2	    1.05000	    0.95000;
	61	 1	 -0.48	 0.55	 0.0	 0.0	 1	    1.00000	    0.00000	 22.0	 2	    1.05000	    0.95000;
	62	 1	 0.0	 0.0	 0.0	 0.0	 1	    1.00000	    0.00000	 115.0	 2	    1.05000	    0.95000;
	63	 1	 9.40	 -0.52	 0.0	 0.0	 1	    1.00000	    0.00000	 115.0	 2	    1.05000	    0.95000;
	64	 1	 0.0	 0.0	 0.0	 0.0	 1	    1.00000	    0.00000	 115.0	 2	    1.05000	    0.95000;
	65	 1	 0.0	 0.0	 0.0	 0.0	 1	    1.00000	    0.00000	 25.0	 2	    1.05000	    0.95000;
	66	 1	 3.76	 -5.85	 0.0	 -15.861	 1	    1.00000	    0.00000	 115.0	 2	    1.05000	    0.95000;
	67	 1	 0.0	 0.0	 0.0	 0.0	 1	    1.00000	    0.00000	 115.0	 2	    1.05000	    0.95000;
	68	 1	 0.0	 0.0	 0.0	 0.0	 1	    1.00000	    0.00000	 12.0	 2	    1.05000	    0.95000;
	69	 1	 0.0	 0.0	 0.0	 0.0	 1	    1.00000	    0.00000	 115.0	 2	    1.05000	    0.95000;
	70	 2	 0.0	 0.0	 0.0	 0.0	 1	    1.00000	    0.00000	 34.5	 2	    1.05000	    0.95000;
	71	 1	 0.0	 0.0	 0.0	 0.0	 1	    1.00000	    0.00000	 1.0	 3	    1.05000	    0.95000;
	72	 1	 0.0	 0.0	 0.0	 0.0	 1	    1.00000	    0.00000	 345.0	 3	    1.05000	    0.95000;
	73	 2	 0.0	 0.0	 0.0	 0.0	 1	    1.00000	    0.00000	 765.0	 3	    1.05000	    0.95000;
	74	 1	 82.47	 30.01	 0.0	 17.9999729176	 1	    1.00000	    0.00000	 138.0	 3	    1.05000	    0.95000;
	75	 3	 27.51	 -14.28	 0.0	 0.0	 1	    1.00000	    0.00000	 345.0	 3	    1.05000	    0.95000;
	76	 1	 0.0	 0.0	 0.0	 0.0	 1	    1.00000	    0.00000	 345.0	 3	    1.05000	    0.95000;
	77	 1	 6.34	 1.40	 0.0	 0.000101257434274	 1	    1.00000	    0.00000	 138.0	 3	    1.05000	    0.95000;
	78	 2	 10.36	 -0.60	 0.0	 0.0	 1	    1.00000	    0.00000	 138.0	 3	    1.05000	    0.95000;
	79	 1	 51.89	 -1.37	 0.0	 0.0	 1	    1.00000	    0.00000	 138.0	 3	    1.05000	    0.95000;
	80	 1	 0.0	 0.0	 0.0	 0.0	 1	    1.00000	    0.00000	 18.0	 3	    1.05000	    0.95000;
	81	 1	 24.86	 4.46	 0.0	 0.0	 1	    1.00000	    0.00000	 138.0	 3	    1.05000	    0.95000;
	82	 1	 0.0	 0.0	 0.0	 0.0	 1	    1.00000	    0.00000	 13.8	 3	    1.05000	    0.95000;
	83	 1	 -6.02	 6.03	 0.0	 0.0	 1	    1.00000	    0.00000	 345.0	 3	    1.05000	    0.95000;
	84	 1	 0.0	 0.0	 0.0	 0.0	 1	    1.00000	    0.00000	 345.0	 3	    1.05000	    0.95000;
	85	 1	 34.72	 2.50	 0.0	 0.0	 1	    1.00000	    0.00000	 138.0	 3	    1.05000	    0.95000;
	86	 1	 54.96	 5.27	 0.0	 0.0	 1	    1.00000	    0.00000	 138.0	 3	    1.05000	    0.95000;
	87	 1	 553.20	 7.09	 0.0	 0.0	 1	    1.00000	    0.00000	 345.0	 3	    1.05000	    0.95000;
	88	 1	 61.71	 12.78	 0.0	 0.0	 1	    1.00000	    0.00000	 345.0	 3	    1.05000	    0.95000;
	89	 1	 220.69	 2.03	 0.0	 0.0	 1	    1.00000	    0.00000	 345.0	 3	    1.05000	    0.95000;
	90	 1	 40.37	 8.84	 0.0	 0.0	 1	    1.00000	    0.00000	 138.0	 3	    1.05000	    0.95000;
	91	 1	 11.72	 2.22	 0.0	 0.0	 1	    1.00000	    0.00000	 138.0	 3	    1.05000	    0.95000;
	92	 1	 36.22	 -4.38	 0.0	 17.9999163045	 1	    1.00000	    0.00000	 138.0	 3	    1.05000	    0.95000;
	93	 1	 126.72	 -21.51	 0.0	 0.0	 1	    1.00000	    0.00000	 345.0	 3	    1.05000	    0.95000;
	94	 1	 23.98	 3.87	 0.0	 6.72995032906	 1	    1.00000	    0.00000	 138.0	 3	    1.05000	    0.95000;
	95	 1	 0.0	 0.0	 0.0	 0.0	 1	    1.00000	    0.00000	 345.0	 3	    1.05000	    0.95000;
	96	 2	 18.75	 3.16	 0.0	 0.0	 1	    1.00000	    0.00000	 138.0	 3	    1.05000	    0.95000;
	97	 1	 141.87	 -28.76	 0.0	 0.0	 1	    1.00000	    0.00000	 138.0	 3	    1.05000	    0.95000;
	98	 1	 32.69	 9.64	 0.0	 0.0	 1	    1.00000	    0.00000	 138.0	 3	    1.05000	    0.95000;
	99	 1	 55.23	 9.98	 0.0	 17.0424703175	 1	    1.00000	    0.00000	 138.0	 3	    1.05000	    0.95000;
	100	 1	 0.0	 0.0	 0.0	 0.0	 1	    1.00000	    0.00000	 1.0	 3	    1.05000	    0.95000;
	101	 1	 0.0	 0.0	 0.0	 0.0	 1	    1.00000	    0.00000	 345.0	 3	    1.05000	    0.95000;
	102	 1	 0.0	 0.0	 0.0	 0.0	 1	    1.00000	    0.00000	 138.0	 3	    1.05000	    0.95000;
	103	 1	 29.29	 -24.57	 0.0	 0.0	 1	    1.00000	    0.00000	 138.0	 3	    1.05000	    0.95000;
	104	 1	 0.0	 0.0	 0.0	 0.0	 1	    1.00000	    0.00000	 345.0	 3	    1.05000	    0.95000;
	105	 1	 0.0	 0.0	 0.0	 0.0	 1	    1.00000	    0.00000	 345.0	 3	    1.05000	    0.95000;
	106	 1	 0.0	 0.0	 0.0	 0.0	 1	    1.00000	    0.00000	 13.8	 3	    1.05000	    0.95000;
	107	 1	 5.25	 2.23	 0.0	 2.99974245453	 1	    1.00000	    0.00000	 138.0	 3	    1.05000	    0.95000;
	108	 1	 0.0	 0.0	 0.0	 0.0	 1	    1.00000	    0.00000	 345.0	 3	    1.05000	    0.95000;
	109	 1	 81.73	 -8.48	 0.0	 0.0	 1	    1.00000	    0.00000	 345.0	 3	    1.05000	    0.95000;
	110	 1	 0.0	 0.0	 0.0	 7.77591109521	 1	    1.00000	    0.00000	 138.0	 3	    1.05000	    0.95000;
	111	 1	 0.0	 0.0	 0.0	 0.0	 1	    1.00000	    0.00000	 138.0	 3	    1.05000	    0.95000;
	112	 2	 27.34	 27.68	 0.0	 0.0	 1	    1.00000	    0.00000	 138.0	 3	    1.05000	    0.95000;
	113	 1	 631.41	 -96.17	 0.0	 0.0	 1	    1.00000	    0.00000	 345.0	 3	    1.05000	    0.95000;
	114	 1	 70.60	 -16.95	 0.0	 -17.2793617853	 1	    1.00000	    0.00000	 138.0	 3	    1.05000	    0.95000;
	115	 1	 38.10	 13.08	 0.0	 0.0	 1	    1.00000	    0.00000	 138.0	 3	    1.05000	    0.95000;
	116	 2	 33.54	 1.48	 0.0	 51.25	 1	    1.00000	    0.00000	 138.0	 3	    1.05000	    0.95000;
	117	 1	 14.52	 -3.00	 0.0	 0.0	 1	    1.00000	    0.00000	 13.8	 3	    1.05000	    0.95000;
	118	 1	 0.0	 0.0	 0.0	 0.0	 1	    1.00000	    0.00000	 345.0	 3	    1.05000	    0.95000;
	119	 1	 -1.59	 5.73	 0.0	 0.0	 1	    1.00000	    0.00000	 24.0	 3	    1.05000	    0.95000;
	120	 1	 0.0	 0.0	 0.0	 0.0	 1	    1.00000	    0.00000	 138.0	 3	    1.05000	    0.95000;
	121	 1	 0.0	 0.0	 0.0	 0.0	 1	    1.00000	    0.00000	 345.0	 3	    1.05000	    0.95000;
	122	 1	 2.79	 -9.49	 0.0	 8.54916974918e-05	 1	    1.00000	    0.00000	 138.0	 3	    1.05000	    0.95000;
	123	 1	 41.55	 1.72	 0.0	 0.0	 1	    1.00000	    0.00000	 138.0	 3	    1.05000	    0.95000;
	124	 1	 0.0	 0.0	 0.0	 0.0	 1	    1.00000	    0.00000	 138.0	 3	    1.05000	    0.95000;
	125	 1	 0.0	 0.0	 0.0	 0.0	 1	    1.00000	    0.00000	 18.0	 3	    1.05000	    0.95000;
	126	 1	 0.0	 0.0	 0.0	 0.0	 1	    1.00000	    0.00000	 18.0	 3	    1.05000	    0.95000;
	127	 1	 0.0	 0.0	 0.0	 0.0	 1	    1.00000	    0.00000	 345.0	 3	    1.05000	    0.95000;
	128	 1	 39.70	 9.02	 0.0	 0.0	 1	    1.00000	    0.00000	 138.0	 3	    1.05000	    0.95000;
	129	 2	 -1.60	 5.61	 0.0	 0.0	 1	    1.00000	    0.00000	 24.0	 3	    1.05000	    0.95000;
	130	 1	 -42.96	 4.38	 0.0	 0.0	 1	    1.00000	    0.00000	 138.0	 3	    1.05000	    0.95000;
	131	 1	 4.52	 1.11	 0.0	 -5.34587821331	 1	    1.00000	    0.00000	 138.0	 3	    1.05000	    0.95000;
	132	 1	 142.37	 14.48	 0.0	 0.0	 1	    1.00000	    0.00000	 138.0	 3	    1.05000	    0.95000;
	133	 1	 51.80	 17.21	 0.0	 6.68996138034	 1	    1.00000	    0.00000	 138.0	 3	    1.05000	    0.95000;
	134	 1	 27.34	 12.96	 0.0	 7.69978252224	 1	    1.00000	    0.00000	 138.0	 3	    1.05000	    0.95000;
	135	 1	 0.0	 0.0	 0.0	 0.0	 1	    1.00000	    0.00000	 345.0	 3	    1.05000	    0.95000;
	136	 1	 2.89	 -10.71	 0.0	 -6.75633000352	 1	    1.00000	    0.00000	 138.0	 3	    1.05000	    0.95000;
	137	 1	 0.0	 0.0	 0.0	 0.0	 1	    1.00000	    0.00000	 345.0	 3	    1.05000	    0.95000;
	138	 1	 36.61	 3.39	 0.0	 0.0	 1	    1.00000	    0.00000	 138.0	 3	    1.05000	    0.95000;
	139	 1	 -4.69	 0.11	 0.0	 6.74995867	 1	    1.00000	    0.00000	 138.0	 3	    1.05000	    0.95000;
	140	 1	 14.53	 -3.00	 0.0	 0.0	 1	    1.00000	    0.00000	 13.8	 3	    1.05000	    0.95000;
	141	 2	 0.0	 0.0	 0.0	 0.0	 1	    1.00000	    0.00000	 345.0	 3	    1.05000	    0.95000;
	142	 1	 0.0	 0.0	 0.0	 -249.996582478	 1	    1.00000	    0.00000	 345.0	 3	    1.05000	    0.95000;
	143	 1	 0.0	 0.0	 0.0	 0.0	 1	    1.00000	    0.00000	 345.0	 3	    1.05000	    0.95000;
	144	 1	 14.65	 0.73	 0.0	 2.33991149862	 1	    1.00000	    0.00000	 138.0	 3	    1.05000	    0.95000;
	145	 1	 40.62	 9.69	 0.0	 0.0	 1	    1.00000	    0.00000	 138.0	 3	    1.05000	    0.95000;
	146	 1	 6.95	 9.32	 0.0	 0.0	 1	    1.00000	    0.00000	 138.0	 3	    1.05000	    0.95000;
	147	 2	 21.43	 3.97	 0.0	 0.0	 1	    1.00000	    0.00000	 138.0	 3	    1.05000	    0.95000;
	148	 1	 35.23	 14.16	 0.0	 0.0	 1	    1.00000	    0.00000	 138.0	 3	    1.05000	    0.95000;
	149	 1	 44.23	 19.42	 0.0	 13.5364791991	 1	    1.00000	    0.00000	 138.0	 3	    1.05000	    0.95000;
	150	 1	 1.21	 2.93	 0.0	 0.0	 1	    1.00000	    0.00000	 138.0	 3	    1.05000	    0.95000;
	151	 1	 0.0	 0.0	 0.0	 0.0	 1	    1.00000	    0.00000	 230.0	 4	    1.05000	    0.95000;
	152	 2	 0.0	 0.0	 0.0	 0.0	 1	    1.00000	    0.00000	 25.0	 4	    1.05000	    0.95000;
	153	 1	 35.56	 4.94	 0.0	 0.0	 1	    1.00000	    0.00000	 115.0	 4	    1.05000	    0.95000;
	154	 2	 36.03	 -0.71	 0.0	 0.0	 1	    1.00000	    0.00000	 46.0	 4	    1.05000	    0.95000;
	155	 1	 0.0	 0.0	 0.0	 0.0	 1	    1.00000	    0.00000	 115.0	 4	    1.05000	    0.95000;
	156	 1	 11.30	 1.30	 0.0	 0.0	 1	    1.00000	    0.00000	 115.0	 4	    1.05000	    0.95000;
	157	 1	 0.0	 0.0	 0.0	 0.0	 1	    1.00000	    0.00000	 46.0	 4	    1.05000	    0.95000;
	158	 1	 0.0	 0.0	 0.0	 0.0	 1	    1.00000	    0.00000	 115.0	 4	    1.05000	    0.95000;
	159	 1	 8.94	 1.60	 0.0	 0.0	 1	    1.00000	    0.00000	 46.0	 4	    1.05000	    0.95000;
	160	 1	 131.27	 -62.29	 0.0	 -59.884	 1	    1.00000	    0.00000	 230.0	 4	    1.05000	    0.95000;
	161	 1	 20.76	 6.06	 0.0	 0.0	 1	    1.00000	    0.00000	 46.0	 4	    1.05000	    0.95000;
	162	 1	 25.99	 4.76	 0.0	 0.0	 1	    1.00000	    0.00000	 115.0	 4	    1.05000	    0.95000;
	163	 1	 7.40	 1.06	 0.0	 0.0	 1	    1.00000	    0.00000	 13.8	 4	    1.05000	    0.95000;
	164	 1	 7.90	 -1.19	 0.0	 0.0	 1	    1.00000	    0.00000	 115.0	 4	    1.05000	    0.95000;
	165	 1	 39.03	 2.54	 0.0	 0.0	 1	    1.00000	    0.00000	 115.0	 4	    1.05000	    0.95000;
	166	 1	 16.78	 0.18	 0.0	 0.0	 1	    1.00000	    0.00000	 115.0	 4	    1.05000	    0.95000;
	167	 1	 0.0	 0.0	 0.0	 0.0	 1	    1.00000	    0.00000	 230.0	 4	    1.05000	    0.95000;
	168	 1	 6.54	 -1.55	 0.0	 0.0	 1	    1.00000	    0.00000	 115.0	 4	    1.05000	    0.95000;
	169	 1	 0.0	 0.0	 0.0	 0.0	 1	    1.00000	    0.00000	 115.0	 4	    1.05000	    0.95000;
	170	 1	 11.20	 0.88	 0.0	 0.0	 1	    1.00000	    0.00000	 115.0	 4	    1.05000	    0.95000;
	171	 1	 0.0	 0.0	 0.0	 0.0	 1	    1.00000	    0.00000	 230.0	 4	    1.05000	    0.95000;
	172	 1	 0.0	 0.0	 0.0	 0.0	 1	    1.00000	    0.00000	 115.0	 4	    1.05000	    0.95000;
	173	 1	 27.21	 0.75	 0.0	 0.0	 1	    1.00000	    0.00000	 46.0	 4	    1.05000	    0.95000;
	174	 1	 -0.38	 -1.28	 0.0	 0.0	 1	    1.00000	    0.00000	 115.0	 4	    1.05000	    0.95000;
	175	 1	 0.0	 0.0	 0.0	 0.0	 1	    1.00000	    0.00000	 115.0	 4	    1.05000	    0.95000;
	176	 1	 23.48	 -5.29	 0.0	 0.0	 1	    1.00000	    0.00000	 115.0	 4	    1.05000	    0.95000;
	177	 1	 143.39	 -29.95	 0.0	 0.0	 1	    1.00000	    0.00000	 230.0	 4	    1.05000	    0.95000;
	178	 1	 0.0	 0.0	 0.0	 0.0	 1	    1.00000	    0.00000	 34.5	 4	    1.05000	    0.95000;
	179	 1	 0.0	 0.0	 0.0	 0.0	 1	    1.00000	    0.00000	 13.8	 4	    1.05000	    0.95000;
	180	 1	 48.00	 -21.65	 0.0	 0.0	 1	    1.00000	    0.00000	 115.0	 4	    1.05000	    0.95000;
	181	 1	 8.07	 -0.65	 0.0	 0.0	 1	    1.00000	    0.00000	 46.0	 4	    1.05000	    0.95000;
	182	 1	 0.0	 0.0	 0.0	 0.0	 1	    1.00000	    0.00000	 34.5	 4	    1.05000	    0.95000;
	183	 1	 5.61	 -1.43	 0.0	 0.0	 1	    1.00000	    0.00000	 115.0	 4	    1.05000	    0.95000;
	184	 1	 13.71	 2.16	 0.0	 0.0	 1	    1.00000	    0.00000	 46.0	 4	    1.05000	    0.95000;
	185	 1	 0.0	 0.0	 0.0	 0.0	 1	    1.00000	    0.00000	 115.0	 4	    1.05000	    0.95000;
	186	 1	 0.0	 0.0	 0.0	 0.0	 1	    1.00000	    0.00000	 230.0	 4	    1.05000	    0.95000;
	187	 1	 6.00	 -1.43	 0.0	 0.0	 1	    1.00000	    0.00000	 115.0	 4	    1.05000	    0.95000;
	188	 1	 5.27	 -4.15	 0.0	 0.0	 1	    1.00000	    0.00000	 115.0	 4	    1.05000	    0.95000;
	189	 1	 0.0	 0.0	 0.0	 0.0	 1	    1.00000	    0.00000	 230.0	 4	    1.05000	    0.95000;
	190	 1	 9.71	 0.43	 0.0	 0.0	 1	    1.00000	    0.00000	 46.0	 4	    1.05000	    0.95000;
	191	 1	 -0.48	 0.55	 0.0	 0.0	 1	    1.00000	    0.00000	 22.0	 4	    1.05000	    0.95000;
	192	 1	 0.0	 0.0	 0.0	 9.19999579897	 1	    1.00000	    0.00000	 34.5	 4	    1.05000	    0.95000;
	193	 1	 87.81	 -13.62	 0.0	 0.0	 1	    1.00000	    0.00000	 115.0	 4	    1.05000	    0.95000;
	194	 1	 0.0	 0.0	 0.0	 0.0	 1	    1.00000	    0.00000	 46.0	 4	    1.05000	    0.95000;
	195	 1	 7.98	 -2.34	 0.0	 0.0	 1	    1.00000	    0.00000	 46.0	 4	    1.05000	    0.95000;
	196	 1	 0.0	 0.0	 0.0	 0.0	 1	    1.00000	    0.00000	 34.5	 4	    1.05000	    0.95000;
	197	 1	 0.0	 0.0	 0.0	 0.0	 1	    1.00000	    0.00000	 46.0	 4	    1.05000	    0.95000;
	198	 1	 0.0	 0.0	 0.0	 0.0	 1	    1.00000	    0.00000	 115.0	 4	    1.05000	    0.95000;
	199	 1	 0.0	 0.0	 0.0	 0.0	 1	    1.00000	    0.00000	 34.5	 4	    1.05000	    0.95000;
	200	 1	 10.94	 -0.58	 0.0	 0.0	 1	    1.00000	    0.00000	 46.0	 4	    1.05000	    0.95000;
...
];

%% generator data
%	bus	Pg	Qg	Qmax	Qmin	Vg	mBase	status	Pmax	Pmin
mpc.gen = [
	9	 74.25	 0.0	 500.0	 -500.0	 1.0	 100.0	 1	 147	 1.5; % COW
	21	 0.0	 0.0	 532.035	 -532.035	 1.0	 100.0	 0	 292	 44.1175; % COW
	23	 139.9675	 0.0	 136.0	 -136.0	 1.0	 100.0	 1	 271	 8.935; % NG
	25	 268.4515	 0.0	 400.0	 -400.0	 1.0	 100.0	 1	 485	 51.903; % COW
	27	 473.61425	 0.0	 550.0	 -550.0	 1.0	 100.0	 1	 933	 14.2285; % NUC
	42	 45.49025	 0.0	 550.0	 -550.0	 1.0	 100.0	 1	 85	 5.9805; % NG
	46	 110.96225	 0.0	 550.0	 -550.0	 1.0	 100.0	 1	 196	 25.9245; % COW
	51	 133.561	 0.0	 550.0	 -550.0	 1.0	 100.0	 1	 263	 4.122; % COW
	55	 0.0	 0.0	 131.303	 -131.303	 1.0	 35.0	 0	 142	 2.85; % NG
	60	 46.25	 0.0	 46.0	 -46.0	 1.0	 100.0	 1	 91	 1.5; % NG
	70	 16.83	 0.0	 16.0	 -16.0	 1.0	 100.0	 1	 31	 2.66; % NG
	73	 164.69225	 0.0	 550.0	 -550.0	 1.0	 100.0	 1	 309	 20.3845; % COW
	75	 486.0	 0.0	 484.0	 -484.0	 1.0	 1020.0	 1	 967	 5.0; % NUC
	75	 545.0	 0.0	 543.0	 -543.0	 1.0	 1020.0	 1	 1085	 5.0; % COW
	78	 109.25	 0.0	 550.0	 -550.0	 1.0	 100.0	 1	 217	 1.5; % NG
	96	 348.5425	 0.0	 550.0	 -550.0	 1.0	 100.0	 1	 694	 3.085; % NUC
	112	 97.25	 0.0	 97.0	 -97.0	 1.0	 100.0	 1	 193	 1.5; % NG
	116	 201.25	 0.0	 201.0	 -201.0	 1.0	 100.0	 1	 401	 1.5; % COW
	119	 0.0	 0.0	 284.382	 -284.382	 1.0	 686.0	 0	 265	 22.853; % COW
	129	 654.25	 0.0	 654.0	 -654.0	 1.0	 686.0	 1	 1307	 1.5; % COW
	141	 528.25	 0.0	 550.0	 -550.0	 1.0	 100.0	 1	 1019	 37.5; % COW
	147	 445.75	 0.0	 445.0	 -445.0	 1.0	 100.0	 1	 890	 1.5; % PEL
	151	 0.0	 0.0	 120.323	 -120.323	 1.0	 100.0	 0	 74	 9.669; % NG
	152	 79.925	 0.0	 135.878	 -135.878	 1.0	 35.0	 1	 157	 2.85; % NG
	154	 177.75	 0.0	 177.0	 -177.0	 1.0	 100.0	 1	 354	 1.5; % COW
	160	 0.0	 0.0	 73.0	 -73.0	 1.0	 40.6	 0	 146	 1.5; % NG
	163	 0.0	 0.0	 186.0	 -186.0	 1.0	 60.67	 0	 372	 4.75; % COW
	178	 0.0	 0.0	 11.0	 -11.0	 1.0	 52.5	 0	 22	 1.5; % NG
	179	 0.0	 0.0	 56.044	 -56.044	 1.0	 102.0	 0	 19	 38.0; % NG
	182	 0.0	 0.0	 32.0	 -32.0	 1.0	 38.65	 0	 64	 3.895; % PEL
	192	 0.0	 0.0	 159.0	 -159.0	 1.0	 100.0	 0	 317	 10.8455; % NG
	196	 0.0	 0.0	 78.0	 -78.0	 1.0	 38.65	 0	 156	 1.5; % NG
	199	 0.0	 0.0	 22.0	 -22.0	 1.0	 126.32	 0	 44	 9.83; % NG
	199	 0.0	 0.0	 176.0	 -176.0	 1.0	 100.0	 0	 351	 1.93; % NG
	199	 0.0	 0.0	 9.607	 -9.607	 1.0	 100.0	 0	 3	 1.5; % PEL
	211	 106.25	 0.0	 106.0	 -106.0	 1.0	 100.0	 1	 211	 1.5; % NG
	217	 0.0	 0.0	 297.832	 -297.832	 1.0	 733.0	 0	 10	 304.0; % NG
	224	 0.0	 0.0	 512.0	 -512.0	 1.0	 650.0	 0	 1023	 213.7; % COW
	237	 0.0	 0.0	 78.0	 -78.0	 1.0	 100.0	 0	 156	 3.8; % NG
	243	 344.74325	 0.0	 550.0	 -550.0	 1.0	 100.0	 1	 685	 4.4865; % COW
	252	 0.0	 0.0	 69.06	 -69.06	 1.0	 250.0	 0	 49	 5.5495; % NG
	257	 0.0	 0.0	 24.979	 -24.979	 1.0	 25.98	 0	 14	 10.325; % NG
	263	 15.02175	 0.0	 21.617	 -21.617	 1.0	 43.45	 1	 28	 2.0435; % NG
	267	 50.75	 0.0	 550.0	 -550.0	 1.0	 100.0	 1	 100	 1.5; % NUC
	269	 247.1715	 0.0	 550.0	 -550.0	 1.0	 100.0	 1	 475	 19.343; % COW
	274	 18.6875	 0.0	 18.735	 -18.735	 1.0	 44.0	 1	 35	 2.375; % PEL
	286	 187.75	 0.0	 550.0	 -550.0	 1.0	 100.0	 1	 338	 37.5; % COW
	293	 21.1875	 0.0	 26.764	 -26.764	 1.0	 73.0	 1	 40	 2.375; % NG
	302	 0.0	 0.0	 120.323	 -120.323	 1.0	 6.25	 0	 2	 5.142; % COW
	305	 175.395	 0.0	 169.0	 -169.0	 1.0	 100.0	 1	 337	 13.79; % COW
	314	 0.0	 0.0	 307.92	 -307.92	 1.0	 370.6	 0	 339	 125.6; % COW
	322	 151.26375	 0.0	 550.0	 -550.0	 1.0	 100.0	 1	 284	 18.5275; % COW
	332	 24.125	 0.0	 48.037	 -48.037	 1.0	 100.0	 1	 46	 2.25; % NG
	333	 0.0	 0.0	 157.0	 -157.0	 1.0	 100.0	 0	 313	 1.5; % NG
	336	 0.0	 0.0	 86.467	 -86.467	 1.0	 234.0	 0	 13	 94.05; % NG
	339	 192.4875	 0.0	 192.0	 -192.0	 1.0	 100.0	 1	 384	 0.975; % COW
	350	 0.0	 0.0	 66.292	 -66.292	 1.0	 43.45	 0	 116	 12.9665; % NG
	351	 431.25	 0.0	 550.0	 -550.0	 1.0	 100.0	 1	 825	 37.5; % NUC
	352	 0.0	 0.0	 563.0	 -563.0	 1.0	 100.0	 0	 1125	 17.2845; % COW
	353	 0.0	 0.0	 216.0	 -216.0	 1.0	 213.4	 0	 432	 47.025; % COW
	356	 167.25	 0.0	 167.0	 -167.0	 1.0	 100.0	 1	 333	 1.5; % COW
	358	 117.27075	 0.0	 123.525	 -123.525	 1.0	 100.0	 1	 234	 0.5415; % NG
	359	 0.0	 0.0	 329.0	 -329.0	 1.0	 595.0	 0	 658	 62.4; % COW
	368	 95.94525	 0.0	 95.0	 -95.0	 1.0	 71.18	 1	 189	 2.8905; % NG
	371	 256.645	 0.0	 253.0	 -253.0	 1.0	 64.7	 1	 506	 7.29; % COW
	371	 0.0	 0.0	 118.95	 -118.95	 1.0	 64.7	 0	 155	 9.559; % COW
	371	 0.0	 0.0	 19.627	 -19.627	 1.0	 49.4	 0	 7	 6.73; % NG
	372	 109.97425	 0.0	 107.0	 -107.0	 1.0	 213.4	 1	 213	 6.9485; % NG
	375	 0.0	 0.0	 49.0	 -49.0	 1.0	 43.45	 0	 98	 2.375; % NG
	379	 360.927	 0.0	 330.0	 -330.0	 1.0	 382.6	 1	 659	 62.854; % COW
	382	 0.0	 0.0	 86.467	 -86.467	 1.0	 234.0	 0	 149	 47.025; % NG
	388	 751.15125	 0.0	 744.0	 -744.0	 1.0	 100.0	 1	 1488	 14.3025; % COW
	392	 126.50625	 0.0	 126.0	 -126.0	 1.0	 100.0	 1	 252	 1.0125; % NG
	398	 81.75	 0.0	 124.44	 -124.44	 1.0	 19.0	 1	 162	 1.5; % NG
	401	 0.0	 0.0	 312.244	 -312.244	 1.0	 369.0	 0	 163	 63.854; % COW
	412	 130.47425	 0.0	 550.0	 -550.0	 1.0	 100.0	 1	 248	 12.9485; % COW
	414	 708.6385	 0.0	 704.0	 -704.0	 1.0	 100.0	 1	 1408	 9.277; % COW
	421	 621.25	 0.0	 621.0	 -621.0	 1.0	 100.0	 1	 1241	 1.5; % NG
	431	 66.25	 0.0	 550.0	 -550.0	 1.0	 100.0	 1	 131	 1.5; % NG
	433	 114.25	 0.0	 550.0	 -550.0	 1.0	 100.0	 1	 227	 1.5; % COW
	442	 173.34075	 0.0	 550.0	 -550.0	 1.0	 100.0	 1	 342	 4.6815; % COW
	456	 538.75	 0.0	 550.0	 -550.0	 1.0	 100.0	 1	 1040	 37.5; % NUC
	468	 85.125	 0.0	 78.0	 -78.0	 1.0	 58.71	 1	 156	 14.25; % NG
	474	 0.0	 0.0	 133.133	 -133.133	 1.0	 52.94	 0	 5	 21.397; % NG
	474	 0.0	 0.0	 94.0	 -94.0	 1.0	 52.94	 0	 187	 7.125; % NG
	506	 0.0	 0.0	 119.408	 -119.408	 1.0	 250.0	 0	 21	 9.5955; % NG
	510	 532.75	 0.0	 550.0	 -550.0	 1.0	 100.0	 1	 1064	 1.5; % COW
	543	 270.75	 0.0	 550.0	 -550.0	 1.0	 100.0	 1	 504	 37.5; % COW
	563	 0.0	 0.0	 384.3	 -384.3	 1.00584	 100.0	 0	 682	 30.8825; % COW
	566	 309.25	 0.0	 368.928	 -368.928	 1.0	 841.0	 1	 617	 1.5; % COW
	569	 164.64775	 0.0	 550.0	 -550.0	 1.0	 100.0	 1	 327	 2.2955; % COW
	579	 600.965	 0.0	 595.0	 -595.0	 1.0	 100.0	 1	 1189	 12.93; % COW
	582	 193.75	 0.0	 320.404	 -320.404	 1.0	 659.0	 1	 386	 1.5; % COW
	584	 338.75	 0.0	 338.0	 -338.0	 1.0	 100.0	 1	 676	 1.5; % NG
	588	 0.0	 0.0	 22.578	 -22.578	 1.00764	 100.0	 0	 28	 1.8145; % NG
	609	 130.75	 0.0	 550.0	 -550.0	 1.0	 100.0	 1	 260	 1.5; % COW
	614	 123.25	 0.0	 270.451	 -270.451	 1.0	 100.0	 1	 245	 1.5; % COW
	626	 0.0	 0.0	 319.141	 -319.141	 1.0	 659.0	 0	 115	 25.646; % COW
	629	 0.0	 0.0	 272.0	 -272.0	 1.00898	 100.0	 0	 544	 14.0515; % COW
	630	 0.0	 0.0	 29.303	 -29.303	 1.0	 55.0	 0	 4	 2.355; % PEL
	630	 0.0	 0.0	 55.0	 -55.0	 1.0	 55.0	 0	 110	 2.123; % NG
	630	 191.84375	 0.0	 191.0	 -191.0	 1.0	 55.0	 1	 382	 1.6875; % PEL
	630	 244.75	 0.0	 244.0	 -244.0	 1.0	 55.0	 1	 488	 1.5; % NG
	630	 0.0	 0.0	 25.94	 -25.94	 1.0	 55.0	 0	 23	 2.0845; % NG
	630	 0.0	 0.0	 31.0	 -31.0	 1.0	 55.0	 0	 61	 2.0845; % NG
	634	 0.0	 0.0	 18.0	 -18.0	 1.0	 19.0	 0	 35	 1.5; % PEL
	638	 239.8495	 0.0	 293.99	 -293.99	 1.0	 718.0	 1	 447	 32.699; % COW
	652	 0.0	 0.0	 38.0	 -38.0	 1.0	 55.6	 0	 76	 1.8145; % NG
	652	 0.0	 0.0	 44.0	 -44.0	 1.0	 55.6	 0	 88	 1.8145; % PEL
	652	 113.75	 0.0	 113.0	 -113.0	 1.0	 55.6	 1	 226	 1.5; % NG
	652	 123.8785	 0.0	 132.675	 -132.675	 1.0	 55.6	 1	 233	 14.757; % COW
	652	 0.0	 0.0	 134.048	 -134.048	 1.0	 195.6	 0	 116	 10.772; % NG
	652	 105.25	 0.0	 105.0	 -105.0	 1.0	 195.6	 1	 209	 1.5; % PEL
	664	 303.901	 0.0	 550.0	 -550.0	 1.0	 100.0	 1	 602	 5.802; % COW
	669	 328.25	 0.0	 328.0	 -328.0	 1.0	 704.0	 1	 655	 1.5; % COW
	682	 18.75	 0.0	 63.6	 -63.6	 1.0181	 100.0	 1	 36	 1.5; % NG
	686	 0.0	 0.0	 364.605	 -364.605	 1.0	 841.0	 0	 322	 29.2995; % COW
	696	 250.572	 0.0	 550.0	 -550.0	 1.0	 100.0	 1	 490	 11.144; % COW
	698	 68.25	 0.0	 68.0	 -68.0	 1.0	 100.0	 1	 135	 1.5; % NG
	702	 336.75	 0.0	 443.386	 -443.386	 1.0	 1043.0	 1	 672	 1.5; % COW
	715	 0.0	 0.0	 131.0	 -131.0	 1.0	 100.0	 0	 261	 10.3675; % COW
	719	 0.0	 0.0	 30.744	 -30.744	 1.0	 47.62	 0	 6	 1.5; % NG
	722	 0.0	 0.0	 184.0	 -184.0	 1.0	 100.0	 0	 367	 2.509; % COW
	728	 0.0	 0.0	 122.015	 -122.015	 1.0	 194.91	 0	 126	 9.805; % NG
	730	 181.2455	 0.0	 176.0	 -176.0	 1.0	 194.45	 1	 352	 10.491; % COW
	732	 151.75	 0.0	 151.0	 -151.0	 1.0	 196.98	 1	 302	 1.5; % NG
	735	 0.0	 0.0	 30.264	 -30.264	 1.0	 100.0	 0	 54	 2.432; % NG
	739	 0.0	 0.0	 12.009	 -12.009	 1.0	 100.0	 0	 3	 1.5; % NG
	742	 0.0	 0.0	 59.0	 -59.0	 1.0	 120.0	 0	 118	 1.425; % NG
	748	 0.0	 0.0	 128.0	 -128.0	 1.0	 195.49	 0	 256	 9.805; % NG
	765	 0.0	 0.0	 123.0	 -123.0	 1.00839	 100.0	 0	 246	 3.3585; % NG
	770	 0.0	 0.0	 59.0	 -59.0	 1.0	 100.0	 0	 118	 1.5; % PEL
	770	 0.0	 0.0	 15.172	 -15.172	 1.0	 100.0	 0	 5	 1.5; % PEL
	774	 193.688	 0.0	 550.0	 -550.0	 1.0	 100.0	 1	 382	 5.376; % COW
	775	 118.75	 0.0	 118.0	 -118.0	 1.0	 194.87	 1	 236	 1.5; % NG
	783	 122.75	 0.0	 122.0	 -122.0	 0.99428	 194.6	 1	 244	 1.5; % NG
	788	 73.25	 0.0	 550.0	 -550.0	 1.0	 100.0	 1	 145	 1.5; % COW
	789	 168.75	 0.0	 550.0	 -550.0	 1.0	 100.0	 1	 336	 1.5; % COW
	791	 165.75	 0.0	 165.0	 -165.0	 1.0	 194.3	 1	 330	 1.5; % COW
	792	 858.2585	 0.0	 837.0	 -837.0	 1.0	 100.0	 1	 1673	 43.517; % COW
	800	 71.7545	 0.0	 342.0	 -342.0	 1.0	 100.0	 1	 141	 2.509; % NG
	801	 402.75	 0.0	 402.0	 -402.0	 1.0	 100.0	 1	 804	 1.5; % NG
	809	 85.56675	 0.0	 550.0	 -550.0	 1.0	 100.0	 1	 149	 22.1335; % COW
	816	 0.0	 0.0	 258.0	 -258.0	 1.0	 128.0	 0	 516	 10.2575; % COW
	816	 195.95	 0.0	 195.0	 -195.0	 1.0	 128.0	 1	 390	 1.9; % NG
	816	 0.0	 0.0	 317.0	 -317.0	 1.0	 128.0	 0	 633	 9.963; % COW
	816	 231.45	 0.0	 231.0	 -231.0	 1.0	 128.0	 1	 461	 1.9; % NG
	819	 0.0	 0.0	 638.226	 -638.226	 1.0079	 100.0	 0	 59	 55.483; % COW
	820	 54.75	 0.0	 112.476	 -112.476	 1.0	 196.78	 1	 108	 1.5; % COW
	821	 0.0	 0.0	 111.132	 -111.132	 1.0	 196.83	 0	 13	 8.9305; % NG
	825	 125.75	 0.0	 125.0	 -125.0	 0.99428	 195.2	 1	 250	 1.5; % PEL
	829	 289.025	 0.0	 287.0	 -287.0	 1.0	 100.0	 1	 574	 4.05; % NG
	836	 0.0	 0.0	 116.663	 -116.663	 1.0	 100.0	 0	 115	 9.375; % NG
	839	 100.75	 0.0	 100.0	 -100.0	 1.0	 100.0	 1	 200	 1.5; % NG
	839	 0.0	 0.0	 21.0	 -21.0	 1.0	 100.0	 0	 41	 1.5; % NG
	840	 82.25	 0.0	 110.549	 -110.549	 1.0	 193.42	 1	 163	 1.5; % NG
	842	 214.25	 0.0	 214.0	 -214.0	 1.0	 100.0	 1	 427	 1.5; % NG
	850	 317.56675	 0.0	 550.0	 -550.0	 1.0	 100.0	 1	 613	 22.1335; % NUC
	859	 0.0	 0.0	 31.224	 -31.224	 1.0	 100.0	 0	 5	 2.509; % NG
	862	 256.75	 0.0	 256.0	 -256.0	 0.99428	 195.77	 1	 512	 1.5; % COW
	863	 0.0	 0.0	 70.0	 -70.0	 1.0	 100.0	 0	 140	 1.5; % NG
	864	 0.0	 0.0	 15.269	 -15.269	 1.0	 100.0	 0	 16	 1.5; % NG
	869	 462.9	 0.0	 461.0	 -461.0	 1.0	 100.0	 1	 922	 3.8; % NG
	873	 0.0	 0.0	 591.096	 -591.096	 1.0	 716.2	 0	 266	 262.2725; % COW
	880	 99.355	 0.0	 133.59	 -133.59	 1.0	 100.0	 1	 197	 1.71; % NG
	906	 0.0	 0.0	 392.0	 -392.0	 1.0	 716.2	 0	 783	 104.5; % NUC
	926	 432.75	 0.0	 550.0	 -550.0	 1.0	 100.0	 1	 828	 37.5; % COW
	938	 0.0	 0.0	 22.0	 -22.0	 1.0	 37.5	 0	 44	 8.5165; % NG
	938	 0.0	 0.0	 14.411	 -14.411	 1.0	 37.5	 0	 22	 8.35; % NG
	938	 0.0	 0.0	 29.0	 -29.0	 1.0	 36.0	 0	 57	 4.3165; % NG
	961	 120.56875	 0.0	 550.0	 -550.0	 1.0	 100.0	 1	 225	 16.1375; % COW
	965	 448.25	 0.0	 550.0	 -550.0	 1.0	 100.0	 1	 859	 37.5; % COW
	987	 173.6625	 0.0	 172.0	 -172.0	 1.0	 60.0	 1	 344	 3.325; % NG
	992	 0.0	 0.0	 31.032	 -31.032	 1.0	 64.1	 0	 5	 2.494; % NG
	992	 0.0	 0.0	 128.1	 -128.1	 1.0	 1.5	 0	 40	 10.294; % NG
	992	 0.0	 0.0	 116.663	 -116.663	 1.0	 100.0	 0	 72	 9.375; % NG
	992	 50.975	 0.0	 129.93	 -129.93	 1.0	 13.0	 1	 101	 0.95; % NG
	996	 509.568	 0.0	 550.0	 -550.0	 1.0	 100.0	 1	 1014	 5.136; % NUC
	1007	 0.0	 0.0	 19.0	 -19.0	 1.0	 100.0	 0	 38	 0.05; % NG
	1048	 0.0	 0.0	 114.375	 -114.375	 1.0	 100.0	 0	 94	 0.6335; % NG
	1056	 174.25	 0.0	 160.0	 -160.0	 1.0	 246.0	 1	 320	 28.5; % NG
	1061	 108.467	 0.0	 550.0	 -550.0	 1.0	 100.0	 1	 200	 16.934; % COW
	1065	 0.0	 0.0	 20.0	 -20.0	 1.0	 100.0	 0	 39	 0.05; % PEL
	1077	 478.296	 0.0	 550.0	 -550.0	 1.0	 100.0	 1	 952	 4.592; % COW
	1086	 0.0	 0.0	 27.0	 -27.0	 1.0	 100.0	 0	 53	 0.05; % NG
	1092	 0.0	 0.0	 250.0	 -250.0	 1.0	 225.0	 0	 500	 1.8; % COW
	1092	 0.0	 0.0	 59.534	 -59.534	 1.0	 154.0	 0	 40	 25.09; % NG
	1139	 297.831	 0.0	 550.0	 -550.0	 1.0	 100.0	 1	 580	 15.662; % COW
	1140	 63.48425	 0.0	 550.0	 -550.0	 1.0	 100.0	 1	 119	 7.9685; % NUC
	1142	 0.0	 0.0	 122.068	 -122.068	 1.0	 100.0	 0	 20	 9.8095; % NG
	1143	 230.25	 0.0	 230.0	 -230.0	 1.0	 100.0	 1	 459	 1.5; % NG
	1144	 382.75	 0.0	 382.0	 -382.0	 1.0	 100.0	 1	 764	 1.5; % COW
	1145	 165.25	 0.0	 165.0	 -165.0	 1.0	 100.0	 1	 329	 1.5; % COW
	1146	 222.87825	 0.0	 550.0	 -550.0	 1.0	 100.0	 1	 418	 27.7565; % COW
	1173	 7.25	 0.0	 7.411	 -7.411	 1.0	 100.0	 1	 13	 1.5; % PEL
	1175	 0.0	 0.0	 14.0	 -14.0	 1.00769	 100.0	 0	 28	 1.5; % NG
	1181	 6.76325	 0.0	 13.725	 -13.725	 1.0	 100.0	 1	 12	 1.5265; % NG
	1183	 0.0	 0.0	 31.0	 -31.0	 1.0	 100.0	 0	 61	 1.5; % NG
	1185	 0.0	 0.0	 21.445	 -21.445	 1.0	 100.0	 0	 35	 1.7235; % PEL
	1187	 0.0	 0.0	 21.445	 -21.445	 1.0	 100.0	 0	 32	 1.7235; % PEL
...
];

%% generator cost data
%	2	startup	shutdown	n	c(n-1)	...	c0
mpc.gencost = [
	2	 0.0	 0.0	 3	   0.262100	  26.580000	 238.400000; % COW
	2	 0.0	 0.0	 3	   0.000000	   0.796100	 9097.000000; % COW
	2	 0.0	 0.0	 3	   0.000000	   1.094000	 1106.000000; % NG
	2	 0.0	 0.0	 3	   0.000000	   0.623000	 7857.000000; % COW
	2	 0.0	 0.0	 3	   0.000000	   0.559300	 2277.000000; % NUC
	2	 0.0	 0.0	 3	   0.000000	   0.553100	 980.000000; % NG
	2	 0.0	 0.0	 3	   0.000000	   0.568300	 4178.000000; % COW
	2	 0.0	 0.0	 3	   0.000000	   0.193400	 469.500000; % COW
	2	 0.0	 0.0	 3	   0.000000	   0.801600	 362.700000; % NG
	2	 0.0	 0.0	 3	   0.000000	  21.270000	 487.600000; % NG
	2	 0.0	 0.0	 3	   0.000000	  25.860000	 285.200000; % NG
	2	 0.0	 0.0	 3	   0.000000	   0.638700	 3261.000000; % COW
	2	 0.0	 0.0	 3	   0.000000	   0.468300	 823.900000; % NUC
	2	 0.0	 0.0	 3	   0.000000	   0.341900	 790.500000; % COW
	2	 0.0	 0.0	 3	   0.000000	   0.813500	 286.500000; % NG
	2	 0.0	 0.0	 3	   0.000000	   0.538100	 523.800000; % NUC
	2	 0.0	 0.0	 3	   0.000000	  23.350000	  96.280000; % NG
	2	 0.0	 0.0	 3	   0.000000	  14.210000	 275.500000; % COW
	2	 0.0	 0.0	 3	   0.000000	   0.947400	 3709.000000; % COW
	2	 0.0	 0.0	 3	   0.000000	   0.758700	 253.700000; % COW
	2	 0.0	 0.0	 3	   0.000179	   0.399700	 5171.000000; % COW
	2	 0.0	 0.0	 3	   0.389100	   8.650000	 188.600000; % PEL
	2	 0.0	 0.0	 3	   0.000000	   1.023000	 1395.000000; % NG
	2	 0.0	 0.0	 3	   0.000000	   0.326900	 778.700000; % NG
	2	 0.0	 0.0	 3	   0.000000	   0.385800	 287.400000; % COW
	2	 0.0	 0.0	 3	   0.000000	   3.847000	 320.400000; % NG
	2	 0.0	 0.0	 3	   0.074550	  56.160000	 483.400000; % COW
	2	 0.0	 0.0	 3	   0.000000	  22.920000	 181.600000; % NG
	2	 0.0	 0.0	 3	   0.033110	  35.740000	 2501.000000; % NG
	2	 0.0	 0.0	 3	   0.000000	  39.130000	 643.000000; % PEL
	2	 0.0	 0.0	 3	   0.000000	   1.601000	 1521.000000; % NG
	2	 0.0	 0.0	 3	   0.000000	  23.300000	 196.900000; % NG
	2	 0.0	 0.0	 3	   0.000000	  21.000000	 512.400000; % NG
	2	 0.0	 0.0	 3	   0.000000	  13.870000	 284.600000; % NG
	2	 0.0	 0.0	 3	   0.000000	  33.600000	 153.200000; % PEL
	2	 0.0	 0.0	 3	   0.957500	  71.510000	 -78.540000; % NG
	2	 0.0	 0.0	 3	   0.000000	   0.215700	 20360.000000; % NG
	2	 0.0	 0.0	 3	   0.000000	   0.854300	 46140.000000; % COW
	2	 0.0	 0.0	 3	   0.000000	  36.050000	 647.400000; % NG
	2	 0.0	 0.0	 3	   0.000000	   0.646700	 884.600000; % COW
	2	 0.0	 0.0	 3	   0.015100	  25.440000	 862.100000; % NG
	2	 0.0	 0.0	 3	   0.000000	  28.970000	 1883.000000; % NG
	2	 0.0	 0.0	 3	   0.000000	   3.897000	 177.100000; % NG
	2	 0.0	 0.0	 3	   0.000000	   0.625800	 240.100000; % NUC
	2	 0.0	 0.0	 3	   0.000000	   0.677600	 2819.000000; % COW
	2	 0.0	 0.0	 3	   0.000000	  14.950000	 306.600000; % PEL
	2	 0.0	 0.0	 3	   0.000000	   0.339200	 7160.000000; % COW
	2	 0.0	 0.0	 3	   0.047860	  41.420000	 263.000000; % NG
	2	 0.0	 0.0	 3	   0.000000	   0.523800	 389.300000; % COW
	2	 0.0	 0.0	 3	   0.000000	   2.348000	 1511.000000; % COW
	2	 0.0	 0.0	 3	   0.000000	   0.869800	 20290.000000; % COW
	2	 0.0	 0.0	 3	   0.000000	   0.374700	 1650.000000; % COW
	2	 0.0	 0.0	 3	   0.028090	  24.710000	 375.000000; % NG
	2	 0.0	 0.0	 3	   1.340000	  13.210000	 155.100000; % NG
	2	 0.0	 0.0	 3	   0.000000	   1.492000	 5589.000000; % NG
	2	 0.0	 0.0	 3	   0.000000	   1.945000	 182.100000; % COW
	2	 0.0	 0.0	 3	   0.019150	  28.050000	 1961.000000; % NG
	2	 0.0	 0.0	 3	   0.000000	   1.295000	 4512.000000; % NUC
	2	 0.0	 0.0	 3	   0.000000	   2.809000	 2040.000000; % COW
	2	 0.0	 0.0	 3	   0.000000	   3.562000	 7380.000000; % COW
	2	 0.0	 0.0	 3	   0.000000	   0.976000	 202.200000; % COW
	2	 0.0	 0.0	 3	   0.000000	   0.458200	  69.370000; % NG
	2	 0.0	 0.0	 3	   0.000000	   9.112000	 12490.000000; % COW
	2	 0.0	 0.0	 3	   0.051830	  42.990000	 300.300000; % NG
	2	 0.0	 0.0	 3	   0.000000	   0.315000	 1995.000000; % COW
	2	 0.0	 0.0	 3	   0.000000	   1.424000	 1307.000000; % COW
	2	 0.0	 0.0	 3	   0.000000	   3.298000	 886.000000; % NG
	2	 0.0	 0.0	 3	   0.009644	  20.310000	 1160.000000; % NG
	2	 0.0	 0.0	 3	   0.000000	  58.240000	 -138.300000; % NG
	2	 0.0	 0.0	 3	   0.000000	   0.163600	 6638.000000; % COW
	2	 0.0	 0.0	 3	   0.019820	  25.830000	 7007.000000; % NG
	2	 0.0	 0.0	 3	   0.000264	   0.457600	 1764.000000; % COW
	2	 0.0	 0.0	 3	   0.000000	   0.486100	 124.400000; % NG
	2	 0.0	 0.0	 3	   0.000842	   2.001000	 266.900000; % NG
	2	 0.0	 0.0	 3	   0.000000	   0.519800	 8762.000000; % COW
	2	 0.0	 0.0	 3	   0.000272	   0.227400	 1857.000000; % COW
	2	 0.0	 0.0	 3	   0.000222	   0.299900	 1299.000000; % COW
	2	 0.0	 0.0	 3	   0.347000	   7.710000	 205.100000; % NG
	2	 0.0	 0.0	 3	   0.000000	   0.173800	 214.400000; % NG
	2	 0.0	 0.0	 3	   0.000000	   0.173800	 178.400000; % COW
	2	 0.0	 0.0	 3	   0.000000	   0.617900	 774.600000; % COW
	2	 0.0	 0.0	 3	   0.000000	   0.737200	 4505.000000; % NUC
	2	 0.0	 0.0	 3	   0.069370	  51.580000	 1435.000000; % NG
	2	 0.0	 0.0	 3	   0.000000	   0.772000	 1271.000000; % NG
	2	 0.0	 0.0	 3	   0.000000	   5.289000	 823.000000; % NG
	2	 0.0	 0.0	 3	   0.000000	   0.826200	 1509.000000; % NG
	2	 0.0	 0.0	 3	   0.000000	   0.587500	 240.600000; % COW
	2	 0.0	 0.0	 3	   0.000000	   0.603500	 5997.000000; % COW
	2	 0.0	 0.0	 3	   0.000000	   1.138000	 6222.000000; % COW
	2	 0.0	 0.0	 3	   0.000000	   0.143600	 214.200000; % COW
	2	 0.0	 0.0	 3	   0.000000	   0.122900	 341.100000; % COW
	2	 0.0	 0.0	 3	   0.000000	   0.450200	 736.400000; % COW
	2	 0.0	 0.0	 3	   0.000000	   0.220900	 200.400000; % COW
	2	 0.0	 0.0	 3	   0.000000	  14.660000	 175.600000; % NG
	2	 0.0	 0.0	 3	   0.047420	  16.140000	 490.800000; % NG
	2	 0.0	 0.0	 3	   0.000000	   0.908200	 430.000000; % COW
	2	 0.0	 0.0	 3	   0.000349	   0.308100	 224.100000; % COW
	2	 0.0	 0.0	 3	   0.000000	   0.271300	 3853.000000; % COW
	2	 0.0	 0.0	 3	   0.000000	   0.676700	 1025.000000; % COW
	2	 0.0	 0.0	 3	   0.000000	  17.960000	 325.200000; % PEL
	2	 0.0	 0.0	 3	   0.000000	  13.440000	 357.100000; % NG
	2	 0.0	 0.0	 3	   0.051220	  47.300000	 227.300000; % PEL
	2	 0.0	 0.0	 3	   0.037370	  40.430000	 192.000000; % NG
	2	 0.0	 0.0	 3	   0.000000	  20.170000	 494.500000; % NG
	2	 0.0	 0.0	 3	   0.000000	  20.170000	 512.500000; % NG
	2	 0.0	 0.0	 3	   0.000000	  29.980000	 128.300000; % PEL
	2	 0.0	 0.0	 3	   0.000000	   0.416300	 4419.000000; % COW
	2	 0.0	 0.0	 3	   0.000000	   5.721000	 148.200000; % NG
	2	 0.0	 0.0	 3	   0.000000	   6.931000	 147.600000; % PEL
	2	 0.0	 0.0	 3	   0.000000	  10.960000	 207.400000; % NG
	2	 0.0	 0.0	 3	   0.000000	   1.933000	 4647.000000; % COW
	2	 0.0	 0.0	 3	   0.000000	   1.080000	 1548.000000; % NG
	2	 0.0	 0.0	 3	   0.000000	  11.630000	  88.510000; % PEL
	2	 0.0	 0.0	 3	   0.000000	   0.727400	 1080.000000; % COW
	2	 0.0	 0.0	 3	   0.000000	   0.447900	 229.000000; % COW
	2	 0.0	 0.0	 3	   0.000000	  31.270000	 209.700000; % NG
	2	 0.0	 0.0	 3	   0.000000	   0.693600	 3045.000000; % COW
	2	 0.0	 0.0	 3	   0.000000	   0.406000	 689.900000; % COW
	2	 0.0	 0.0	 3	   0.000000	   8.206000	 143.400000; % NG
	2	 0.0	 0.0	 3	   0.000000	   0.576200	 328.900000; % COW
	2	 0.0	 0.0	 3	   0.000000	   1.151000	 1465.000000; % COW
	2	 0.0	 0.0	 3	   0.000000	  11.730000	 278.500000; % NG
	2	 0.0	 0.0	 3	   0.073260	  56.330000	  63.520000; % COW
	2	 0.0	 0.0	 3	   0.000000	   0.802200	 1156.000000; % NG
	2	 0.0	 0.0	 3	   0.000000	   0.787200	 1276.000000; % COW
	2	 0.0	 0.0	 3	   0.000000	   0.755000	 237.700000; % NG
	2	 0.0	 0.0	 3	   0.000000	  10.420000	 541.200000; % NG
	2	 0.0	 0.0	 3	   0.000000	  18.600000	 208.300000; % NG
	2	 0.0	 0.0	 3	   0.029160	  35.710000	 238.500000; % NG
	2	 0.0	 0.0	 3	   0.000000	   0.164600	 1296.000000; % NG
	2	 0.0	 0.0	 3	   0.041050	  42.060000	 432.200000; % NG
	2	 0.0	 0.0	 3	   0.000000	   4.383000	 138.900000; % PEL
	2	 0.0	 0.0	 3	   0.000000	  13.260000	  92.330000; % PEL
	2	 0.0	 0.0	 3	   0.000000	   1.187000	 1390.000000; % COW
	2	 0.0	 0.0	 3	   0.000000	   1.754000	 276.500000; % NG
	2	 0.0	 0.0	 3	   0.000000	   0.854700	 253.900000; % NG
	2	 0.0	 0.0	 3	   0.000000	   0.163400	 139.300000; % COW
	2	 0.0	 0.0	 3	   0.000229	   0.252800	 248.300000; % COW
	2	 0.0	 0.0	 3	   0.000000	   0.538400	 276.700000; % COW
	2	 0.0	 0.0	 3	   0.000000	   0.143800	 2923.000000; % COW
	2	 0.0	 0.0	 3	   0.073260	  56.330000	 258.100000; % NG
	2	 0.0	 0.0	 3	   0.020190	  29.700000	 266.800000; % NG
	2	 0.0	 0.0	 3	   0.000000	   0.843900	 4482.000000; % COW
	2	 0.0	 0.0	 3	   0.000000	   1.398000	 1462.000000; % COW
	2	 0.0	 0.0	 3	   0.014640	  25.260000	 335.700000; % NG
	2	 0.0	 0.0	 3	   0.000000	   0.992400	 1407.000000; % COW
	2	 0.0	 0.0	 3	   0.021750	  20.020000	 320.300000; % NG
	2	 0.0	 0.0	 3	   0.000104	   0.139800	 7776.000000; % COW
	2	 0.0	 0.0	 3	   0.000000	   1.649000	 188.500000; % COW
	2	 0.0	 0.0	 3	   0.000000	   0.991600	 1142.000000; % NG
	2	 0.0	 0.0	 3	   0.000000	   0.409300	 200.700000; % PEL
	2	 0.0	 0.0	 3	   0.000000	   0.708500	 573.300000; % NG
	2	 0.0	 0.0	 3	   0.000000	   1.241000	 1320.000000; % NG
	2	 0.0	 0.0	 3	   0.000000	   4.780000	 187.600000; % NG
	2	 0.0	 0.0	 3	   0.000000	   4.772000	 205.600000; % NG
	2	 0.0	 0.0	 3	   0.000000	   0.989800	 197.600000; % NG
	2	 0.0	 0.0	 3	   0.014820	  25.450000	 255.900000; % NG
	2	 0.0	 0.0	 3	   0.000000	   0.759300	 3547.000000; % NUC
	2	 0.0	 0.0	 3	   0.073260	  56.330000	 234.100000; % NG
	2	 0.0	 0.0	 3	   0.000000	   0.285200	 221.700000; % COW
	2	 0.0	 0.0	 3	   0.000000	   4.539000	 139.000000; % NG
	2	 0.0	 0.0	 3	   0.000000	   4.660000	 156.600000; % NG
	2	 0.0	 0.0	 3	   0.000000	   0.752900	 534.100000; % NG
	2	 0.0	 0.0	 3	   0.000000	   0.211600	 38700.000000; % COW
	2	 0.0	 0.0	 3	   0.000000	   0.701700	 238.900000; % NG
	2	 0.0	 0.0	 3	   0.000000	   0.406800	 12390.000000; % NUC
	2	 0.0	 0.0	 3	   0.000228	   0.206800	 5257.000000; % COW
	2	 0.0	 0.0	 3	   0.000000	  25.560000	 834.600000; % NG
	2	 0.0	 0.0	 3	   0.000000	  10.410000	 1198.000000; % NG
	2	 0.0	 0.0	 3	   0.364400	   4.180000	 560.400000; % NG
	2	 0.0	 0.0	 3	   0.000239	   0.244800	 2311.000000; % COW
	2	 0.0	 0.0	 3	   0.000254	   0.230000	 5323.000000; % COW
	2	 0.0	 0.0	 3	   0.067800	  53.980000	 329.200000; % NG
	2	 0.0	 0.0	 3	   0.000000	  14.050000	 477.100000; % NG
	2	 0.0	 0.0	 3	   0.000000	   0.803200	 1070.000000; % NG
	2	 0.0	 0.0	 3	   0.000000	   1.748000	 1504.000000; % NG
	2	 0.0	 0.0	 3	   0.000000	   1.063000	 159.500000; % NG
	2	 0.0	 0.0	 3	   0.000000	   0.406500	 724.400000; % NUC
	2	 0.0	 0.0	 3	 375.100000	 2996.000000	 -303.351000; % NG
	2	 0.0	 0.0	 3	   0.000000	   0.721700	 117.800000; % NG
	2	 0.0	 0.0	 3	   0.000000	   2.786000	 4701.000000; % NG
	2	 0.0	 0.0	 3	   0.000000	   0.111600	 3164.000000; % COW
	2	 0.0	 0.0	 3	 286.800000	 4320.000000	 -421.800000; % PEL
	2	 0.0	 0.0	 3	   0.000000	   0.787400	 874.900000; % COW
	2	 0.0	 0.0	 3	 124.100000	 3674.000000	 -316.100000; % NG
	2	 0.0	 0.0	 3	   0.000000	   0.660700	 251.400000; % COW
	2	 0.0	 0.0	 3	   0.033560	  35.150000	 3301.000000; % NG
	2	 0.0	 0.0	 3	   0.000000	   0.111500	 1491.000000; % COW
	2	 0.0	 0.0	 3	   0.000000	   0.622300	 883.100000; % NUC
	2	 0.0	 0.0	 3	   0.000000	   1.586000	 1244.000000; % NG
	2	 0.0	 0.0	 3	   0.001663	   0.354700	 183.200000; % NG
	2	 0.0	 0.0	 3	   0.000000	   0.964900	 215.700000; % COW
	2	 0.0	 0.0	 3	   0.000000	   0.453000	 222.200000; % COW
	2	 0.0	 0.0	 3	   0.000000	   0.068170	 1559.000000; % COW
	2	 0.0	 0.0	 3	   0.000000	   9.816000	 232.800000; % PEL
	2	 0.0	 0.0	 3	   0.000000	   5.583000	 177.600000; % NG
	2	 0.0	 0.0	 3	   0.000000	   4.335000	 296.700000; % NG
	2	 0.0	 0.0	 3	   0.000000	  14.770000	 193.800000; % NG
	2	 0.0	 0.0	 3	   0.000000	  12.200000	 123.800000; % PEL
	2	 0.0	 0.0	 3	   0.000000	  12.550000	 259.500000; % PEL
...
];

%% branch data
%	fbus	tbus	r	x	b	rateA	rateB	rateC	ratio	angle	status	angmin	angmax
mpc.branch = [
	1	 31	 0.0013	 0.0099	 0.02132	 260.0	 312.0	 390.0	 0.0	 0.0	 1	 -30.0	 30.0;
	3	 7	 0.07479	 0.29968	 0.0	 260.0	 312.0	 390.0	 0.0	 0.0	 1	 -30.0	 30.0;
	3	 10	 1.0352	 0.9	 0.0	 260.0	 312.0	 390.0	 0.0	 0.0	 1	 -30.0	 30.0;
	3	 28	 0.03978	 0.26486	 0.0	 260.0	 312.0	 390.0	 0.0	 0.0	 1	 -30.0	 30.0;
	3	 29	 1.0789	 0.9	 0.0	 260.0	 312.0	 390.0	 0.0	 0.0	 1	 -30.0	 30.0;
	3	 33	 0.13857	 0.28969	 0.0	 260.0	 312.0	 390.0	 0.0	 0.0	 1	 -30.0	 30.0;
	3	 44	 0.07496	 0.30013	 0.0	 260.0	 312.0	 390.0	 0.0	 0.0	 1	 -30.0	 30.0;
	4	 9	 0.39394	 0.9	 0.0	 260.0	 312.0	 390.0	 0.0	 0.0	 1	 -30.0	 30.0;
	4	 15	 0.0111	 0.16469	 0.0	 260.0	 312.0	 390.0	 0.0	 0.0	 1	 -30.0	 30.0;
	4	 33	 0.05555	 0.36498	 0.0	 260.0	 312.0	 390.0	 0.0	 0.0	 1	 -30.0	 30.0;
	5	 9	 0.29041	 0.5542	 0.0	 260.0	 312.0	 390.0	 0.0	 0.0	 1	 -30.0	 30.0;
	5	 47	 0.15248	 0.33587	 0.0	 260.0	 312.0	 390.0	 0.0	 0.0	 1	 -30.0	 30.0;
	6	 16	 0.0042	 0.0253	 0.0485	 260.0	 312.0	 390.0	 0.0	 0.0	 1	 -30.0	 30.0;
	6	 54	 0.0046	 0.0315	 0.059	 420.23	 504.27	 630.34	 0.0	 0.0	 1	 -30.0	 30.0;
	7	 28	 -0.0656	 0.84873	 0.0	 260.0	 312.0	 390.0	 0.0	 0.0	 1	 -30.0	 30.0;
	7	 33	 0.15749	 0.77703	 0.0	 260.0	 312.0	 390.0	 0.0	 0.0	 1	 -30.0	 30.0;
	7	 44	 0.0162	 0.1815	 0.0	 260.0	 312.0	 390.0	 0.0	 0.0	 1	 -30.0	 30.0;
	8	 10	 -0.0598	 0.2664	 0.0	 260.0	 312.0	 390.0	 0.0	 0.0	 1	 -30.0	 30.0;
	8	 29	 -0.0578	 0.27321	 0.0	 260.0	 312.0	 390.0	 0.0	 0.0	 1	 -30.0	 30.0;
	8	 34	 0.01979	 0.0496	 0.0	 260.0	 312.0	 390.0	 0.0	 0.0	 1	 -30.0	 30.0;
	9	 10	 0.46671	 0.9	 0.0	 260.0	 312.0	 390.0	 0.0	 0.0	 1	 -30.0	 30.0;
	9	 15	 0.39058	 0.9	 0.0	 260.0	 312.0	 390.0	 0.0	 0.0	 1	 -30.0	 30.0;
	9	 29	 0.50043	 0.9	 0.0	 260.0	 312.0	 390.0	 0.0	 0.0	 1	 -30.0	 30.0;
	9	 33	 0.98041	 0.9	 0.0	 260.0	 312.0	 390.0	 0.0	 0.0	 1	 -30.0	 30.0;
	9	 34	 0.54064	 0.64634	 0.0	 260.0	 312.0	 390.0	 0.0	 0.0	 1	 -30.0	 30.0;
	9	 47	 0.14495	 0.27334	 0.0	 260.0	 312.0	 390.0	 0.0	 0.0	 1	 -30.0	 30.0;
	10	 28	 0.48924	 0.9	 0.0	 260.0	 312.0	 390.0	 0.0	 0.0	 1	 -30.0	 30.0;
	10	 29	 0.0009	 0.0003	 0.0	 260.0	 312.0	 390.0	 0.0	 0.0	 1	 -30.0	 30.0;
	10	 33	 0.95414	 0.9	 0.0	 260.0	 312.0	 390.0	 0.0	 0.0	 1	 -30.0	 30.0;
	10	 34	 0.01526	 0.02962	 0.0	 260.0	 312.0	 390.0	 0.0	 0.0	 1	 -30.0	 30.0;
	11	 47	 0.16551	 0.4737	 0.0	 260.0	 312.0	 390.0	 0.0	 0.0	 1	 -30.0	 30.0;
	11	 49	 0.04304	 0.18584	 0.0	 260.0	 312.0	 390.0	 0.0	 0.0	 1	 -30.0	 30.0;
	12	 18	 0.0136	 0.0903	 0.1732	 260.0	 312.0	 390.0	 0.0	 0.0	 1	 -30.0	 30.0;
	12	 961	 0.0001	 0.01	 0.0	 122.07	 146.49	 183.11	 0.0	 0.0	 1	 -30.0	 30.0;
	13	 22	 0.0154	 0.0991	 0.17817	 591.0	 709.2	 886.5	 0.0	 0.0	 1	 -30.0	 30.0;
	13	 31	 0.0122	 0.0943	 0.18743	 260.0	 312.0	 390.0	 0.0	 0.0	 1	 -30.0	 30.0;
	13	 39	 0.0065	 0.0503	 0.10008	 260.0	 312.0	 390.0	 0.0	 0.0	 1	 -30.0	 30.0;
	13	 40	 0.0022	 0.0262	 0.05566	 712.6	 855.12	 1068.9	 0.0	 0.0	 1	 -30.0	 30.0;
	13	 40	 0.0027	 0.0268	 0.05696	 707.9	 849.48	 1061.85	 0.0	 0.0	 1	 -30.0	 30.0;
	15	 33	 0.05509	 0.36182	 0.0	 260.0	 312.0	 390.0	 0.0	 0.0	 1	 -30.0	 30.0;
	16	 1077	 0.0001	 0.01	 0.0	 222.0	 244.2	 266.4	 0.0	 0.0	 1	 -30.0	 30.0;
	17	 43	 0.0123	 0.0822	 0.15137	 357.0	 392.7	 428.4	 0.0	 0.0	 1	 -30.0	 30.0;
	17	 52	 0.0057	 0.0382	 0.07047	 260.0	 312.0	 390.0	 0.0	 0.0	 1	 -30.0	 30.0;
	18	 35	 0.00605	 0.03642	 0.06956	 260.0	 312.0	 390.0	 0.0	 0.0	 1	 -30.0	 30.0;
	18	 52	 0.00203	 0.01191	 0.02399	 260.0	 312.0	 390.0	 0.0	 0.0	 1	 -30.0	 30.0;
	19	 53	 0.00116	 0.0314	 2.6586	 758.15	 909.78	 1137.22	 0.0	 0.0	 1	 -30.0	 30.0;
	22	 45	 0.0106	 0.0684	 0.13505	 260.0	 312.0	 390.0	 0.0	 0.0	 1	 -30.0	 30.0;
	22	 48	 0.0112	 0.0727	 0.14343	 260.0	 312.0	 390.0	 0.0	 0.0	 1	 -30.0	 30.0;
	22	 50	 0.00197	 0.01283	 0.02477	 260.0	 312.0	 390.0	 0.0	 0.0	 1	 -30.0	 30.0;
	23	 632	 0.0001	 0.01	 0.0	 505.0	 555.5	 606.0	 0.0	 0.0	 1	 -30.0	 30.0;
	24	 36	 0.0045	 0.0221	 0.00642	 260.0	 312.0	 390.0	 0.0	 0.0	 1	 -30.0	 30.0;
	26	 45	 0.0034	 0.0221	 0.04362	 260.0	 312.0	 390.0	 0.0	 0.0	 1	 -30.0	 30.0;
	27	 49	 0.04064	 0.1642	 0.0	 260.0	 312.0	 390.0	 0.0	 0.0	 1	 -30.0	 30.0;
	27	 666	 0.0001	 0.01	 0.0	 154.56	 185.47	 231.84	 0.0	 0.0	 1	 -30.0	 30.0;
	28	 29	 0.523	 0.9	 0.0	 260.0	 312.0	 390.0	 0.0	 0.0	 1	 -30.0	 30.0;
	28	 33	 0.03257	 0.26394	 0.0	 260.0	 312.0	 390.0	 0.0	 0.0	 1	 -30.0	 30.0;
	28	 44	 -0.0656	 0.85005	 0.0	 260.0	 312.0	 390.0	 0.0	 0.0	 1	 -30.0	 30.0;
	29	 34	 0.01598	 0.03011	 0.0	 260.0	 312.0	 390.0	 0.0	 0.0	 1	 -30.0	 30.0;
	30	 32	 0.01265	 0.06079	 0.0289	 260.0	 312.0	 390.0	 0.0	 0.0	 1	 -30.0	 30.0;
	30	 41	 0.0239	 0.1186	 0.06562	 260.0	 312.0	 390.0	 0.0	 0.0	 1	 -30.0	 30.0;
	31	 43	 0.0001	 0.001	 0.00208	 260.0	 312.0	 390.0	 0.0	 0.0	 1	 -30.0	 30.0;
	32	 609	 0.0001	 0.01	 0.0	 193.83	 232.59	 290.74	 0.0	 0.0	 1	 -30.0	 30.0;
	33	 44	 0.15786	 0.7782	 0.0	 260.0	 312.0	 390.0	 0.0	 0.0	 1	 -30.0	 30.0;
	35	 42	 0.00421	 0.0253	 0.04874	 260.0	 312.0	 390.0	 0.0	 0.0	 1	 -30.0	 30.0;
	37	 38	 0.0044	 0.034	 0.06751	 260.0	 312.0	 390.0	 0.0	 0.0	 1	 -30.0	 30.0;
	37	 39	 0.0049	 0.0375	 0.07449	 429.88	 515.85	 644.82	 0.0	 0.0	 1	 -30.0	 30.0;
	38	 40	 0.0048	 0.0569	 0.12161	 260.0	 312.0	 390.0	 0.0	 0.0	 1	 -30.0	 30.0;
	39	 43	 0.0091	 0.0698	 0.13869	 453.0	 498.3	 543.6	 0.0	 0.0	 1	 -30.0	 30.0;
	42	 975	 0.0001	 0.01	 0.0	 137.0	 150.7	 164.4	 0.0	 0.0	 1	 -30.0	 30.0;
	46	 678	 0.0001	 0.01	 0.0	 172.0	 189.2	 206.4	 0.0	 0.0	 1	 -30.0	 30.0;
	50	 54	 0.01244	 0.081	 0.1561	 260.0	 312.0	 390.0	 0.0	 0.0	 1	 -30.0	 30.0;
	51	 204	 0.0001	 0.01	 0.0	 83.7	 98.6	 125.55	 0.0	 0.0	 1	 -30.0	 30.0;
	56	 58	 0.00033	 0.00185	 0.00134	 154.0	 182.0	 182.0	 0.0	 0.0	 1	 -30.0	 30.0;
	56	 63	 0.00351	 0.01972	 0.0013	 154.0	 182.0	 182.0	 0.0	 0.0	 1	 -30.0	 30.0;
	58	 67	 0.00251	 0.00782	 0.0022	 154.0	 182.0	 182.0	 0.0	 0.0	 1	 -30.0	 30.0;
	59	 62	 0.004	 0.0117	 0.0013	 139.0	 163.0	 163.0	 0.0	 0.0	 1	 -30.0	 30.0;
	59	 225	 0.0001	 0.01	 0.0	 83.7	 98.6	 125.55	 0.0	 0.0	 1	 -30.0	 30.0;
	62	 64	 0.0046	 0.01505	 0.00188	 83.0	 83.0	 83.0	 0.0	 0.0	 1	 -30.0	 30.0;
	62	 69	 0.0252	 0.0825	 0.0103	 142.0	 167.0	 167.0	 0.0	 0.0	 1	 -30.0	 30.0;
	66	 67	 0.0087	 0.02647	 0.00222	 144.0	 169.0	 169.0	 0.0	 0.0	 1	 -30.0	 30.0;
	66	 69	 0.0262	 0.0857	 0.0107	 142.0	 176.0	 176.0	 0.0	 0.0	 1	 -30.0	 30.0;
	66	 241	 0.0001	 0.01	 0.0	 83.7	 98.6	 125.55	 0.0	 0.0	 1	 -30.0	 30.0;
	72	 95	 0.0016	 0.0179	 0.29195	 749.15	 898.98	 1123.72	 0.0	 0.0	 1	 -30.0	 30.0;
	72	 127	 0.0011	 0.0122	 0.2654	 654.13	 784.95	 981.19	 0.0	 0.0	 1	 -30.0	 30.0;
	74	 103	 0.0024	 0.0113	 0.00294	 260.0	 312.0	 390.0	 0.0	 0.0	 1	 -30.0	 30.0;
	74	 103	 -0.0148	 0.50095	 0.0	 260.0	 312.0	 390.0	 0.0	 0.0	 1	 -30.0	 30.0;
	74	 133	 0.0189	 0.0877	 0.02284	 260.0	 312.0	 390.0	 0.0	 0.0	 1	 -30.0	 30.0;
	74	 146	 0.018	 0.1264	 0.04014	 260.0	 312.0	 390.0	 0.0	 0.0	 1	 -30.0	 30.0;
	75	 87	 0.0018	 0.0232	 0.4064	 685.32	 822.38	 1027.98	 0.0	 0.0	 1	 -30.0	 30.0;
	75	 143	 0.0013	 0.0192	 0.335	 2010.0	 2211.0	 2412.0	 0.0	 0.0	 1	 -30.0	 30.0;
	76	 88	 0.0014	 0.0157	 0.29997	 260.0	 312.0	 390.0	 0.0	 0.0	 1	 -30.0	 30.0;
	77	 98	 0.0201	 0.0815	 0.02096	 260.0	 312.0	 390.0	 0.0	 0.0	 1	 -30.0	 30.0;
	77	 122	 0.0035	 0.0178	 0.0	 260.0	 312.0	 390.0	 0.0	 0.0	 1	 -30.0	 30.0;
	77	 122	 0.0229	 0.41771	 0.0	 260.0	 312.0	 390.0	 0.0	 0.0	 1	 -30.0	 30.0;
	78	 128	 0.01346	 0.05014	 0.0125	 260.0	 312.0	 390.0	 0.0	 0.0	 1	 -30.0	 30.0;
	78	 2440	 0.0001	 0.01	 0.0	 228.0	 250.8	 273.6	 0.0	 0.0	 1	 -30.0	 30.0;
	79	 124	 0.0001	 0.001	 0.0	 260.0	 312.0	 390.0	 0.0	 0.0	 1	 -30.0	 30.0;
	81	 85	 0.031	 0.1441	 0.0334	 260.0	 312.0	 390.0	 0.0	 0.0	 1	 -30.0	 30.0;
	81	 103	 0.0085	 0.0394	 0.01026	 260.0	 312.0	 390.0	 0.0	 0.0	 1	 -30.0	 30.0;
	81	 147	 0.0404	 0.1952	 0.04559	 260.0	 312.0	 390.0	 0.0	 0.0	 1	 -30.0	 30.0;
	83	 104	 0.00065	 0.00725	 0.138	 565.76	 678.91	 848.64	 0.0	 0.0	 1	 -30.0	 30.0;
	83	 108	 0.00065	 0.00725	 0.138	 574.22	 689.07	 861.33	 0.0	 0.0	 1	 -30.0	 30.0;
	84	 93	 0.00224	 0.02578	 0.26437	 1046.0	 1466.0	 1466.0	 0.0	 0.0	 1	 -30.0	 30.0;
	84	 142	 0.00067	 0.00772	 0.07922	 1046.0	 1466.0	 1466.0	 0.0	 0.0	 1	 -30.0	 30.0;
	85	 90	 0.0131	 0.0609	 0.01586	 260.0	 312.0	 390.0	 0.0	 0.0	 1	 -30.0	 30.0;
	85	 94	 0.0056	 0.0418	 0.01167	 260.0	 312.0	 390.0	 0.0	 0.0	 1	 -30.0	 30.0;
	85	 150	 0.0131	 0.0609	 0.01586	 260.0	 312.0	 390.0	 0.0	 0.0	 1	 -30.0	 30.0;
	86	 94	 0.0052	 0.0393	 0.01144	 260.0	 312.0	 390.0	 0.0	 0.0	 1	 -30.0	 30.0;
	86	 148	 0.0027	 0.0198	 0.0063	 260.0	 312.0	 390.0	 0.0	 0.0	 1	 -30.0	 30.0;
	88	 89	 0.0024	 0.026	 0.43493	 260.0	 312.0	 390.0	 0.0	 0.0	 1	 -30.0	 30.0;
	88	 143	 0.0016	 0.0182	 0.3036	 566.0	 622.6	 679.2	 0.0	 0.0	 1	 -30.0	 30.0;
	91	 139	 0.0043	 0.0196	 0.0051	 260.0	 312.0	 390.0	 0.0	 0.0	 1	 -30.0	 30.0;
	91	 150	 0.01	 0.0462	 0.01204	 260.0	 312.0	 390.0	 0.0	 0.0	 1	 -30.0	 30.0;
	92	 110	 0.0001	 0.001	 0.0	 260.0	 312.0	 390.0	 0.0	 0.0	 1	 -30.0	 30.0;
	92	 133	 0.006	 0.0478	 0.01272	 260.0	 312.0	 390.0	 0.0	 0.0	 1	 -30.0	 30.0;
	92	 2634	 0.0001	 0.01	 0.0	 83.7	 98.6	 125.55	 0.0	 0.0	 1	 -30.0	 30.0;
	93	 113	 0.00258	 0.029	 0.2982	 1046.0	 1361.0	 1361.0	 0.0	 0.0	 1	 -30.0	 30.0;
	93	 127	 0.0007	 0.0074	 0.07651	 1568.0	 1760.0	 1760.0	 0.0	 0.0	 1	 -30.0	 30.0;
	95	 137	 0.0009	 0.01	 0.19176	 964.64	 1157.56	 1446.96	 0.0	 0.0	 1	 -30.0	 30.0;
	96	 134	 0.0063	 0.0477	 0.01332	 260.0	 312.0	 390.0	 0.0	 0.0	 1	 -30.0	 30.0;
	96	 2557	 0.0001	 0.01	 0.0	 116.0	 127.6	 139.2	 0.0	 0.0	 1	 -30.0	 30.0;
	97	 150	 0.0041	 0.0572	 0.036	 260.0	 312.0	 390.0	 0.0	 0.0	 1	 -30.0	 30.0;
	97	 1186	 0.0001	 0.01	 0.0	 269.0	 295.9	 322.8	 0.0	 0.0	 1	 -30.0	 30.0;
	98	 123	 0.0245	 0.1136	 0.0296	 260.0	 312.0	 390.0	 0.0	 0.0	 1	 -30.0	 30.0;
	98	 134	 0.0092	 0.0694	 0.01932	 260.0	 312.0	 390.0	 0.0	 0.0	 1	 -30.0	 30.0;
	98	 136	 0.0001	 0.0478	 0.0	 260.0	 312.0	 390.0	 0.0	 0.0	 1	 -30.0	 30.0;
	99	 107	 0.00171	 0.01033	 0.0032	 260.0	 312.0	 390.0	 0.0	 0.0	 1	 -30.0	 30.0;
	99	 2539	 0.0001	 0.01	 0.0	 126.0	 138.6	 151.2	 0.0	 0.0	 1	 -30.0	 30.0;
	101	 105	 0.0018	 0.0204	 0.3036	 260.0	 312.0	 390.0	 0.0	 0.0	 1	 -30.0	 30.0;
	101	 135	 0.0011	 0.0119	 0.2281	 580.08	 696.1	 870.12	 0.0	 0.0	 1	 -30.0	 30.0;
	101	 143	 0.0018	 0.0204	 0.3036	 587.48	 704.98	 881.22	 0.0	 0.0	 1	 -30.0	 30.0;
	102	 111	 0.0061	 0.0463	 0.0132	 260.0	 312.0	 390.0	 0.0	 0.0	 1	 -30.0	 30.0;
	102	 116	 0.0095	 0.0217	 0.02035	 260.0	 312.0	 390.0	 0.0	 0.0	 1	 -30.0	 30.0;
	104	 141	 0.0009	 0.0104	 0.19965	 566.62	 679.95	 849.94	 0.0	 0.0	 1	 -30.0	 30.0;
	107	 128	 0.00052	 0.00357	 0.00098	 260.0	 312.0	 390.0	 0.0	 0.0	 1	 -30.0	 30.0;
	108	 137	 0.0008	 0.0097	 0.19279	 674.44	 809.33	 1011.66	 0.0	 0.0	 1	 -30.0	 30.0;
	109	 142	 0.00106	 0.01322	 0.21146	 1256.0	 1256.0	 1256.0	 0.0	 0.0	 1	 -30.0	 30.0;
	110	 144	 0.0021	 0.0148	 0.00462	 260.0	 312.0	 390.0	 0.0	 0.0	 1	 -30.0	 30.0;
	110	 2457	 0.0001	 0.01	 0.0	 122.0	 134.2	 146.4	 0.0	 0.0	 1	 -30.0	 30.0;
	111	 124	 0.0011	 0.008	 0.00226	 260.0	 312.0	 390.0	 0.0	 0.0	 1	 -30.0	 30.0;
	112	 120	 0.0057	 0.0412	 0.0115	 260.0	 312.0	 390.0	 0.0	 0.0	 1	 -30.0	 30.0;
	112	 128	 0.0189	 0.0873	 0.02016	 260.0	 312.0	 390.0	 0.0	 0.0	 1	 -30.0	 30.0;
	113	 142	 0.00549	 0.0625	 0.6418	 1046.0	 1361.0	 1361.0	 0.0	 0.0	 1	 -30.0	 30.0;
	113	 1206	 0.0001	 0.01	 0.0	 354.0	 389.4	 424.8	 0.0	 0.0	 1	 -30.0	 30.0;
	114	 660	 0.0001	 0.01	 0.0	 362.42	 434.9	 543.63	 0.0	 0.0	 1	 -30.0	 30.0;
	115	 139	 0.0043	 0.0319	 0.00892	 260.0	 312.0	 390.0	 0.0	 0.0	 1	 -30.0	 30.0;
	115	 148	 0.0086	 0.0644	 0.018	 260.0	 312.0	 390.0	 0.0	 0.0	 1	 -30.0	 30.0;
	116	 138	 0.0088	 0.0659	 0.0184	 260.0	 312.0	 390.0	 0.0	 0.0	 1	 -30.0	 30.0;
	116	 572	 0.0001	 0.01	 0.0	 484.0	 532.4	 580.8	 0.0	 0.0	 1	 -30.0	 30.0;
	118	 142	 0.0001	 0.001	 0.0	 1887.0	 2143.0	 2143.0	 0.0	 0.0	 1	 -30.0	 30.0;
	120	 124	 0.008	 0.0604	 0.01712	 260.0	 312.0	 390.0	 0.0	 0.0	 1	 -30.0	 30.0;
	120	 145	 0.0402	 0.1181	 0.0278	 260.0	 312.0	 390.0	 0.0	 0.0	 1	 -30.0	 30.0;
	121	 142	 0.0001	 0.001	 0.0	 1887.0	 2156.0	 2156.0	 0.0	 0.0	 1	 -30.0	 30.0;
	123	 133	 0.02	 0.0925	 0.02408	 260.0	 312.0	 390.0	 0.0	 0.0	 1	 -30.0	 30.0;
	123	 145	 0.0197	 0.0912	 0.02378	 260.0	 312.0	 390.0	 0.0	 0.0	 1	 -30.0	 30.0;
	128	 149	 0.0175	 0.0966	 0.0162	 260.0	 312.0	 390.0	 0.0	 0.0	 1	 -30.0	 30.0;
	130	 132	 0.0011	 0.0078	 0.00217	 550.67	 660.8	 826.0	 0.0	 0.0	 1	 -30.0	 30.0;
	130	 146	 0.0067	 0.0806	 0.026	 494.76	 593.72	 742.14	 0.0	 0.0	 1	 -30.0	 30.0;
	131	 149	 0.0263	 0.0966	 0.0246	 260.0	 312.0	 390.0	 0.0	 0.0	 1	 -30.0	 30.0;
	131	 2887	 0.0001	 0.01	 0.0	 83.7	 98.6	 125.55	 0.0	 0.0	 1	 -30.0	 30.0;
	132	 147	 0.00603	 0.04436	 0.01226	 410.93	 493.11	 616.39	 0.0	 0.0	 1	 -30.0	 30.0;
	135	 137	 0.0011	 0.0125	 0.24052	 1059.61	 1271.53	 1589.42	 0.0	 0.0	 1	 -30.0	 30.0;
	136	 2537	 0.0001	 0.01	 0.0	 83.7	 98.6	 125.55	 0.0	 0.0	 1	 -30.0	 30.0;
	137	 142	 0.00103	 0.013	 0.2569	 1423.0	 1760.0	 1760.0	 0.0	 0.0	 1	 -30.0	 30.0;
	138	 147	 0.0091	 0.0683	 0.0197	 329.0	 361.9	 394.8	 0.0	 0.0	 1	 -30.0	 30.0;
	141	 413	 0.0001	 0.01	 0.0	 534.0	 587.4	 640.8	 0.0	 0.0	 1	 -30.0	 30.0;
	145	 146	 0.0108	 0.0804	 0.02246	 260.0	 312.0	 390.0	 0.0	 0.0	 1	 -30.0	 30.0;
	147	 148	 0.0075	 0.0557	 0.01557	 260.0	 312.0	 390.0	 0.0	 0.0	 1	 -30.0	 30.0;
	151	 177	 0.003	 0.0251	 0.04873	 499.0	 558.0	 558.0	 0.0	 0.0	 1	 -30.0	 30.0;
	151	 186	 0.0028	 0.02356	 0.04657	 568.0	 678.0	 678.0	 0.0	 0.0	 1	 -30.0	 30.0;
	153	 188	 0.0145	 0.0742	 0.0101	 168.0	 191.0	 191.0	 0.0	 0.0	 1	 -30.0	 30.0;
	153	 219	 0.00812	 0.04907	 0.00683	 167.0	 186.0	 186.0	 0.0	 0.0	 1	 -30.0	 30.0;
	153	 222	 0.0145	 0.0473	 0.0059	 359.0	 394.9	 430.8	 0.0	 0.0	 1	 -30.0	 30.0;
	153	 227	 0.01239	 0.03217	 0.00396	 139.0	 163.0	 163.0	 0.0	 0.0	 1	 -30.0	 30.0;
	155	 172	 0.0162	 0.0813	 0.011	 181.0	 240.0	 240.0	 0.0	 0.0	 1	 -30.0	 30.0;
	155	 202	 0.00164	 0.00425	 0.00052	 181.0	 240.0	 240.0	 0.0	 0.0	 1	 -30.0	 30.0;
	156	 165	 0.0078	 0.04388	 0.00623	 187.0	 247.0	 247.0	 0.0	 0.0	 1	 -30.0	 30.0;
	156	 185	 0.0117	 0.0726	 0.0102	 240.0	 279.0	 279.0	 0.0	 0.0	 1	 -30.0	 30.0;
	156	 232	 0.00769	 0.04309	 0.00617	 340.07	 408.09	 510.11	 0.0	 0.0	 1	 -30.0	 30.0;
	156	 242	 0.0001	 0.0183	 0.0	 260.0	 312.0	 390.0	 0.0	 0.0	 1	 -30.0	 30.0;
	157	 190	 0.2298	 0.3596	 0.0	 260.0	 312.0	 390.0	 0.0	 0.0	 1	 -30.0	 30.0;
	157	 249	 0.0647	 0.1538	 0.0	 260.0	 312.0	 390.0	 0.0	 0.0	 1	 -30.0	 30.0;
	158	 170	 0.00339	 0.01896	 0.0027	 229.0	 266.0	 266.0	 0.0	 0.0	 1	 -30.0	 30.0;
	158	 231	 0.01295	 0.0728	 0.01034	 241.0	 287.0	 287.0	 0.0	 0.0	 1	 -30.0	 30.0;
	159	 212	 0.0516	 0.1106	 0.0	 260.0	 312.0	 390.0	 0.0	 0.0	 1	 -30.0	 30.0;
	160	 189	 0.0024	 0.0252	 0.06298	 672.0	 766.0	 766.0	 0.0	 0.0	 1	 -30.0	 30.0;
	160	 203	 0.0038	 0.0453	 0.09508	 575.0	 698.0	 698.0	 0.0	 0.0	 1	 -30.0	 30.0;
...